
This summary file was generated by TurbSim (v1.50, 25-Sep-2009) on 11-Mar-2010 at 14:30:59.


Runtime Options:

   5924385  Random seed #1
  69410270  Random seed #2
         F  Output binary HH turbulence parameters?
         F  Output formatted turbulence parameters?
         F  Output AeroDyn HH files?
         F  Output AeroDyn FF files?
         T  Output BLADED FF files?
         F  Output tower data?
         F  Output formatted FF files?
         F  Output coherent turbulence time step file?
         T  Clockwise rotation when looking downwind?
 0 -  NONE  IEC turbulence models scaled to exact specified standard deviation


Turbine/Model Specifications:

         6  Vertical grid-point matrix dimension
         6  Horizontal grid-point matrix dimension
     0.050  Time step [seconds]
   600.000  Analysis time [seconds]
    70.000  Usable output time [seconds]
    34.619  Hub height [m]
     8.000  Grid height [m]
     8.000  Grid width [m]
     0.000  Vertical flow angle [degrees]
     0.000  Horizontal flow angle [degrees]


Meteorological Boundary Conditions:

    IECKAI  IEC Kaimal spectral model
         1  IEC standard: IEC 61400-1 Ed. 3: 2005
         A  IEC turbulence characteristic
       NTM  IEC Normal Turbulence Model
       N/A  IEC Extreme Turbulence Model (ETM) "c" parameter [m/s]
       IEC  Wind profile type
    34.619  Reference height [m]
    16.000  Reference wind speed [m/s]
       N/A  Jet height [m]
     0.200  Power law exponent
     0.030  Surface roughness length [m]


You have requested that the following file(s) be generated:

   35m_16mps.wnd (AeroDyn/BLADED full-field wnd file)


Turbulence Simulation Scaling Parameter Summary:

   Turbulence model used                            =  IEC Kaimal
   Turbulence characteristic                        =  A
   IEC turbulence type                              =  Normal Turbulence Model
   IEC standard                                     =  IEC 61400-1 Ed. 3: 2005
   Mean wind speed at hub height                    =   16.000 m/s
   Expected value of turbulence intensity at 15 m/s =   16.000%
   Characteristic value of standard deviation       =    2.816 m/s
   Turbulence scale                                 =   24.233 m
   u-component integral scale                       =  196.289 m
   Coherency scale                                  =  196.289 m
   Characteristic value of hub turbulence intensity =   17.600%
   Gradient Richardson number                       =    0.000

   Wind profile type                                =  Power law on rotor disk, logarithmic elsewhere
   Power law exponent                               =    0.200
   Mean shear across rotor disk                     =    0.093 (m/s)/m
   Assumed rotor diameter                           =    8.000 m
   Surface roughness length                         =    0.030 m

   Number of time steps in the FFT                  =    12000
   Number of time steps output                      =     1410


Mean Flow Angles:

   Vertical   =   0.0 degrees
   Horizontal =   0.0 degrees

Mean Wind Speed Profile:

   Height    Wind Speed   Horizontal Angle  U-comp (X)   V-comp (Y)   W-comp (Z)
     (m)        (m/s)         (degrees)       (m/s)        (m/s)        (m/s)   
   ------    ----------   ----------------  ----------   ----------   ----------
     38.6       16.35            0.00         16.35         0.00         0.00
     37.0       16.22            0.00         16.22         0.00         0.00
     35.4       16.07            0.00         16.07         0.00         0.00
     34.6       16.00            0.00         16.00         0.00         0.00
     33.8       15.93            0.00         15.93         0.00         0.00
     32.2       15.77            0.00         15.77         0.00         0.00
     30.6       15.61            0.00         15.61         0.00         0.00


Harvested Random Seeds after Generation of the Random Numbers:

   1372798379 Harvested seed #1
   1345260127 Harvested seed #2


Hub-Height Simulated Turbulence Statistical Summary:

   Type of Wind        Min (m/s)   Mean (m/s)    Max (m/s)  Sigma (m/s)       TI (%)
   ----------------    ---------   ----------    ---------  -----------       ------
   Longitudinal (u)         8.77        16.00        24.49        2.654       16.585
   Lateral (v)             -7.44         0.00         6.71        2.209       13.803
   Vertical (w)            -5.49         0.00         5.07        1.359        8.496
   U component              8.77        16.00        24.49        2.654       16.585
   V component             -7.44         0.00         6.71        2.209       13.803
   W component             -5.49         0.00         5.07        1.359        8.496
   Horizontal (U&V)         8.91        16.15        24.87        2.652       16.422
   Total                    8.95        16.21        24.88        2.645       16.315

                       Min Reynolds     Mean Reynolds    Max Reynolds    Correlation
   Product             Stress (m/s)^2   Stress (m/s)^2   Stress (m/s)^2  Coefficient
   ----------------    --------------   --------------   --------------  -----------
   u'w'                    -19.041             0.142            21.100         0.039
   u'v'                    -32.330             0.894            41.234         0.153
   v'w'                    -20.685             0.131            20.491         0.044


   Friction Velocity (Ustar)  =      0.377 m/s
   Maximum Instantaneous TKE  =     46.743 (m/s)^2
   Maximum Instantaneous CTKE =     21.541 (m/s)^2


Grid Point Variance Summary:

   Y-coord   -4.00   -2.40   -0.80    0.80    2.40    4.00

   Height   Standard deviation at grid points for the u component:
    38.62    2.552   2.573   2.595   2.665   2.721   2.621
    37.02    2.632   2.622   2.607   2.580   2.613   2.602
    35.42    2.700   2.650   2.692   2.630   2.527   2.572
    33.82    2.651   2.743   2.699   2.651   2.566   2.637
    32.22    2.705   2.728   2.708   2.583   2.568   2.598
    30.62    2.742   2.785   2.777   2.703   2.634   2.623

   Height   Standard deviation at grid points for the v component:
    38.62    2.209   2.209   2.209   2.209   2.209   2.209
    37.02    2.209   2.209   2.209   2.209   2.209   2.209
    35.42    2.209   2.209   2.209   2.209   2.209   2.209
    33.82    2.209   2.209   2.209   2.209   2.209   2.209
    32.22    2.209   2.209   2.209   2.209   2.209   2.209
    30.62    2.209   2.209   2.209   2.209   2.209   2.209

   Height   Standard deviation at grid points for the w component:
    38.62    1.359   1.359   1.359   1.359   1.359   1.359
    37.02    1.359   1.359   1.359   1.359   1.359   1.359
    35.42    1.359   1.359   1.359   1.359   1.359   1.359
    33.82    1.359   1.359   1.359   1.359   1.359   1.359
    32.22    1.359   1.359   1.359   1.359   1.359   1.359
    30.62    1.359   1.359   1.359   1.359   1.359   1.359

   Mean standard deviation across all grid points:
      u component:    2.646 m/s
      v component:    2.209 m/s
      w component:    1.359 m/s


U-component (X) statistics from the interpolated hub point:

   Mean =  15.9993 m/s
   TI   =  15.7758 %


Normalizing Parameters for Binary Data (approximate statistics):

   UBar  =  16.0000 m/s
   TI(u) =  16.5849 %
   TI(v) =  13.8033 %
   TI(w) =   8.4961 %

   Height Offset =   0.0000 m
   Grid Base     =  30.6189 m

Nyquist frequency of turbulent wind field =        10.000 Hz


Processing complete.  0.40625 CPU seconds used.
