
This summary file was generated by TurbSim (v1.06.00, 21-Sep-2012) on 15-Oct-2012 at 13:39:00.


Runtime Options:

    238573  Random seed #1
   9428756  Random seed #2
         F  Output binary HH turbulence parameters?
         F  Output formatted turbulence parameters?
         F  Output AeroDyn HH files?
         F  Output AeroDyn FF files?
         T  Output BLADED FF files?
         F  Output tower data?
         F  Output formatted FF files?
         F  Output coherent turbulence time step file?
         T  Clockwise rotation when looking downwind?
 0 -  NONE  IEC turbulence models scaled to exact specified standard deviation


Turbine/Model Specifications:

         7  Vertical grid-point matrix dimension
         7  Horizontal grid-point matrix dimension
     0.050  Time step [seconds]
   600.000  Analysis time [seconds]
    40.000  Usable output time [seconds]
    84.288  Hub height [m]
    84.000  Grid height [m]
    84.000  Grid width [m]
     0.000  Vertical flow angle [degrees]
     0.000  Horizontal flow angle [degrees]


Meteorological Boundary Conditions:

    IECKAI  IEC Kaimal spectral model
         1  IEC standard: IEC 61400-1 Ed. 3: 2005
         A  IEC turbulence characteristic
       NTM  IEC Normal Turbulence Model
       N/A  IEC Extreme Turbulence Model (ETM) "c" parameter [m/s]
       IEC  Wind profile type
    84.288  Reference height [m]
    12.000  Reference wind speed [m/s]
       N/A  Jet height [m]
     0.200  Power law exponent
     0.030  Surface roughness length [m]


You have requested that the following file(s) be generated:

   C:\Users\bjonkman\Documents\DATA\DesignCodes\simulators\FAST\SVNdirectory\trunk\CertTest\Wind\WP_Baseline\84m_12mps.wnd (AeroDyn/BLADED full-field wnd file)


Turbulence Simulation Scaling Parameter Summary:

   Turbulence model used                            =  IEC Kaimal
   Turbulence characteristic                        =  A
   IEC turbulence type                              =  Normal Turbulence Model
   IEC standard                                     =  IEC 61400-1 Ed. 3: 2005
   Mean wind speed at hub height                    =   12.000 m/s
   Expected value of turbulence intensity at 15 m/s =   16.000%
   Characteristic value of standard deviation       =    2.336 m/s
   Turbulence scale                                 =   42.000 m
   u-component integral scale                       =  340.200 m
   Coherency scale                                  =  340.200 m
   Characteristic value of hub turbulence intensity =   19.467%
   Gradient Richardson number                       =    0.000

   Wind profile type                                =  Power law on rotor disk, logarithmic elsewhere
   Power law exponent                               =    0.200
   Mean shear across rotor disk                     =    0.030 (m/s)/m
   Assumed rotor diameter                           =   84.000 m
   Surface roughness length                         =    0.030 m

   Number of time steps in the FFT                  =    12000
   Number of time steps output                      =      940


Mean Flow Angles:

   Vertical   =   0.0 degrees
   Horizontal =   0.0 degrees

Mean Wind Speed Profile:

   Height    Wind Speed   Horizontal Angle  U-comp (X)   V-comp (Y)   W-comp (Z)
     (m)        (m/s)         (degrees)       (m/s)        (m/s)        (m/s)   
   ------    ----------   ----------------  ----------   ----------   ----------
    126.3       13.01            0.00         13.01         0.00         0.00
    112.3       12.71            0.00         12.71         0.00         0.00
     98.3       12.37            0.00         12.37         0.00         0.00
     84.3       12.00            0.00         12.00         0.00         0.00
     70.3       11.57            0.00         11.57         0.00         0.00
     56.3       11.07            0.00         11.07         0.00         0.00
     42.3       10.45            0.00         10.45         0.00         0.00


Harvested Random Seeds after Generation of the Random Numbers:

    120173700 Harvested seed # 1
    244689242 Harvested seed # 2


Hub-Height Simulated Turbulence Statistical Summary:

   Type of Wind        Min (m/s)   Mean (m/s)    Max (m/s)  Sigma (m/s)       TI (%)
   ----------------    ---------   ----------    ---------  -----------       ------
   Longitudinal (u)         5.25        12.00        21.64        2.318       19.315
   Lateral (v)             -5.68         0.00         6.92        1.826       15.217
   Vertical (w)            -3.80         0.00         4.60        1.142        9.513
   U component              5.25        12.00        21.64        2.318       19.315
   V component             -5.68         0.00         6.92        1.826       15.217
   W component             -3.80         0.00         4.60        1.142        9.513
   Horizontal (U&V)         5.31        12.14        21.65        2.286       18.823
   Total                    5.35        12.20        21.65        2.274       18.642

                       Min Reynolds     Mean Reynolds    Max Reynolds    Correlation
   Product             Stress (m/s)^2   Stress (m/s)^2   Stress (m/s)^2  Coefficient
   ----------------    --------------   --------------   --------------  -----------
   u'w'                    -16.025             0.095            18.226         0.036
   u'v'                    -23.879            -0.124            30.143        -0.029
   v'w'                    -13.216            -0.075             9.816        -0.036


   Friction Velocity (Ustar)  =      0.308 m/s
   Maximum Instantaneous TKE  =     46.633 (m/s)^2
   Maximum Instantaneous CTKE =     15.383 (m/s)^2


Grid Point Variance Summary:

   Y-coord  -42.00  -28.00  -14.00    0.00   14.00   28.00   42.00

   Height   Standard deviation at grid points for the u component:
   126.29    2.278   2.351   2.167   2.248   2.123   2.024   1.990
   112.29    2.211   2.345   2.314   2.129   2.063   1.969   1.831
    98.29    2.278   2.261   2.202   2.208   1.961   2.175   2.014
    84.29    2.273   2.365   2.240   2.318   2.211   2.154   2.104
    70.29    2.200   2.237   2.148   2.198   2.190   2.197   2.282
    56.29    2.111   2.172   2.256   2.311   2.197   2.289   2.264
    42.29    2.223   2.338   2.257   2.313   2.193   2.116   2.084

   Height   Standard deviation at grid points for the v component:
   126.29    1.826   1.826   1.826   1.826   1.826   1.826   1.826
   112.29    1.826   1.826   1.826   1.826   1.826   1.826   1.826
    98.29    1.826   1.826   1.826   1.826   1.826   1.826   1.826
    84.29    1.826   1.826   1.826   1.826   1.826   1.826   1.826
    70.29    1.826   1.826   1.826   1.826   1.826   1.826   1.826
    56.29    1.826   1.826   1.826   1.826   1.826   1.826   1.826
    42.29    1.826   1.826   1.826   1.826   1.826   1.826   1.826

   Height   Standard deviation at grid points for the w component:
   126.29    1.142   1.142   1.142   1.142   1.142   1.142   1.142
   112.29    1.142   1.142   1.142   1.142   1.142   1.142   1.142
    98.29    1.142   1.142   1.142   1.142   1.142   1.142   1.142
    84.29    1.142   1.142   1.142   1.142   1.142   1.142   1.142
    70.29    1.142   1.142   1.142   1.142   1.142   1.142   1.142
    56.29    1.142   1.142   1.142   1.142   1.142   1.142   1.142
    42.29    1.142   1.142   1.142   1.142   1.142   1.142   1.142

   Mean standard deviation across all grid points:
      u component:    2.191 m/s
      v component:    1.826 m/s
      w component:    1.142 m/s


U-component (X) statistics from the hub grid point:

   Mean =  12.0000 m/s
   TI   =  19.3152 %


Normalizing Parameters for Binary Data (approximate statistics):

   UBar  =  12.0000 m/s
   TI(u) =  19.3152 %
   TI(v) =  15.2169 %
   TI(w) =   9.5127 %

   Height Offset =   0.0000 m
   Grid Base     =  42.2876 m

Nyquist frequency of turbulent wind field =        10.000 Hz


Processing complete.  0.234 CPU seconds used.
