
This summary file was generated by HydroDyn v2.05.01 on 03-Nov-2016 at 13:55:40.

WAMIT Model
-----------
  Displaced volume (m^3)                 :     8.029210E+03
  X-offset of the center of buoyancy (m) :     0.000000E+00
  Y-offset of the center of buoyancy (m) :     0.000000E+00


  Buoyancy loads from members modelled with WAMIT, summed about ( 0.0, 0.0, 0.0 )
                                BuoyFxi               BuoyFyi               BuoyFzi               BuoyMxi               BuoyMyi               BuoyMzi 
                                  (N)                   (N)                   (N)                  (N-m)                 (N-m)                 (N-m)  
  External:                 0.000000E+00          0.000000E+00          8.070814E+07          0.000000E+00          0.000000E+00          0.000000E+00



Volume Calculations(m^3)
------------------------
  Structure Volume     :    0.00000E+00
  Submerged Volume     :    0.00000E+00
  Marine Growth Volume :    0.00000E+00
  Ballasted Volume     :    0.00000E+00
              NOTE: Structure, Submerged and Marine Growth volumes are based on members not modelled with WAMIT
                      Ballasted volume is computed from all members which are marked as filled in the HydroDyn input file, regardless of PropPot flag



Buoyancy loads summed about ( 0.0, 0.0, 0.0 )
---------------------------------------------
                                BuoyFxi               BuoyFyi               BuoyFzi               BuoyMxi               BuoyMyi               BuoyMzi 
                                  (N)                   (N)                   (N)                  (N-m)                 (N-m)                 (N-m)  
 External:                  0.000000E+00          0.000000E+00          0.000000E+00          0.000000E+00          0.000000E+00          0.000000E+00
 Internal:                  0.000000E+00          0.000000E+00          0.000000E+00          0.000000E+00          0.000000E+00          0.000000E+00
 Total   :                  0.000000E+00          0.000000E+00          0.000000E+00          0.000000E+00          0.000000E+00          0.000000E+00
              NOTE: External buoyancy is based on members not modelled with WAMIT
                      Internal buoyancy is computed from all members which are marked as filled in the HydroDyn input file, regardless of PropPot flag
                    Total buoyancy does not include WAMIT-modelled buoyancy contribution



Weight loads about ( 0.0, 0.0, 0.0 )
------------------------------------
                                 MGFxi                 MGFyi                 MGFzi                 MGMxi                 MGMyi                 MGMzi  
                                  (N)                   (N)                   (N)                  (N-m)                 (N-m)                 (N-m)  
 Marine Growth:             0.000000E+00          0.000000E+00          0.000000E+00          0.000000E+00          0.000000E+00          0.000000E+00



Nodes


   i    JointIndx   JointOvrlp  InpMbrIndx     Nxi         Nyi         Nzi      InpMbrDist       R         dRdZ         t          tMG        MGDens      PropPot   FilledFlag   FillDens   FillFSLoc       Cd          Ca          Cp         AxCa        AxCp        JAxCd       JAxCa       JAxCp    NConn  Connection List
  (-)      (-)         (-)         (-)         (m)         (m)         (m)          (-)         (m)         (-)        (m)         (m)       (kg/m^3)      (-)         (-)       (kg/m^3)       (-)         (-)         (-)         (-)         (-)         (-)         (-)         (-)         (-)      (-)                  
     1           1           0           1      0.0000      0.0000   -120.0000      0.0000   4.700E+00   0.000E+00   1.000E-04   0.000E+00   0.000E+00           T           F   0.000E+00   0.000E+00   6.000E-01   0.000E+00   1.000E+00   1.000E+00   1.000E+00   0.000E+00   0.000E+00   1.000E+00      1     1
     2           2           0           1      0.0000      0.0000    -12.0000      1.0000   4.700E+00   0.000E+00   1.000E-04   0.000E+00   0.000E+00           T           F   0.000E+00   0.000E+00   6.000E-01   0.000E+00   1.000E+00   1.000E+00   1.000E+00   0.000E+00   0.000E+00   1.000E+00      1   219
     3           3           0           2      0.0000      0.0000     -4.0000      1.0000   3.250E+00  -1.812E-01   1.000E-04   0.000E+00   0.000E+00           T           F   0.000E+00   0.000E+00   6.000E-01   0.000E+00   1.000E+00   1.000E+00   1.000E+00   0.000E+00   0.000E+00   1.000E+00      1   234
     4           4           0           3      0.0000      0.0000     10.0000      1.0000   3.250E+00   0.000E+00   1.000E-04   0.000E+00   0.000E+00           T           F   0.000E+00   0.000E+00   6.000E-01   0.000E+00   1.000E+00   1.000E+00   1.000E+00   0.000E+00   0.000E+00   1.000E+00      1   260
     5           5           0           3      0.0000      0.0000      0.0000      0.2857   3.250E+00   0.000E+00   1.000E-04   0.000E+00   0.000E+00           T           F   0.000E+00   0.000E+00   6.000E-01   0.000E+00   1.000E+00   1.000E+00   1.000E+00   0.000E+00   0.000E+00   0.000E+00      1   241
     6          -1           0           1      0.0000      0.0000   -119.5000      0.0046   4.700E+00   0.000E+00   1.000E-04   0.000E+00   0.000E+00           T           F   0.000E+00   0.000E+00   6.000E-01   0.000E+00   1.000E+00   1.000E+00   1.000E+00   0.000E+00   0.000E+00   0.000E+00      2     1     5
     7          -1           0           1      0.0000      0.0000   -119.0000      0.0093   4.700E+00   0.000E+00   1.000E-04   0.000E+00   0.000E+00           T           F   0.000E+00   0.000E+00   6.000E-01   0.000E+00   1.000E+00   1.000E+00   1.000E+00   0.000E+00   0.000E+00   0.000E+00      2     5     6
     8          -1           0           1      0.0000      0.0000   -118.5000      0.0139   4.700E+00   0.000E+00   1.000E-04   0.000E+00   0.000E+00           T           F   0.000E+00   0.000E+00   6.000E-01   0.000E+00   1.000E+00   1.000E+00   1.000E+00   0.000E+00   0.000E+00   0.000E+00      2     6     7
     9          -1           0           1      0.0000      0.0000   -118.0000      0.0185   4.700E+00   0.000E+00   1.000E-04   0.000E+00   0.000E+00           T           F   0.000E+00   0.000E+00   6.000E-01   0.000E+00   1.000E+00   1.000E+00   1.000E+00   0.000E+00   0.000E+00   0.000E+00      2     7     8
    10          -1           0           1      0.0000      0.0000   -117.5000      0.0231   4.700E+00   0.000E+00   1.000E-04   0.000E+00   0.000E+00           T           F   0.000E+00   0.000E+00   6.000E-01   0.000E+00   1.000E+00   1.000E+00   1.000E+00   0.000E+00   0.000E+00   0.000E+00      2     8     9
    11          -1           0           1      0.0000      0.0000   -117.0000      0.0278   4.700E+00   0.000E+00   1.000E-04   0.000E+00   0.000E+00           T           F   0.000E+00   0.000E+00   6.000E-01   0.000E+00   1.000E+00   1.000E+00   1.000E+00   0.000E+00   0.000E+00   0.000E+00      2     9    10
    12          -1           0           1      0.0000      0.0000   -116.5000      0.0324   4.700E+00   0.000E+00   1.000E-04   0.000E+00   0.000E+00           T           F   0.000E+00   0.000E+00   6.000E-01   0.000E+00   1.000E+00   1.000E+00   1.000E+00   0.000E+00   0.000E+00   0.000E+00      2    10    11
    13          -1           0           1      0.0000      0.0000   -116.0000      0.0370   4.700E+00   0.000E+00   1.000E-04   0.000E+00   0.000E+00           T           F   0.000E+00   0.000E+00   6.000E-01   0.000E+00   1.000E+00   1.000E+00   1.000E+00   0.000E+00   0.000E+00   0.000E+00      2    11    12
    14          -1           0           1      0.0000      0.0000   -115.5000      0.0417   4.700E+00   0.000E+00   1.000E-04   0.000E+00   0.000E+00           T           F   0.000E+00   0.000E+00   6.000E-01   0.000E+00   1.000E+00   1.000E+00   1.000E+00   0.000E+00   0.000E+00   0.000E+00      2    12    13
    15          -1           0           1      0.0000      0.0000   -115.0000      0.0463   4.700E+00   0.000E+00   1.000E-04   0.000E+00   0.000E+00           T           F   0.000E+00   0.000E+00   6.000E-01   0.000E+00   1.000E+00   1.000E+00   1.000E+00   0.000E+00   0.000E+00   0.000E+00      2    13    14
    16          -1           0           1      0.0000      0.0000   -114.5000      0.0509   4.700E+00   0.000E+00   1.000E-04   0.000E+00   0.000E+00           T           F   0.000E+00   0.000E+00   6.000E-01   0.000E+00   1.000E+00   1.000E+00   1.000E+00   0.000E+00   0.000E+00   0.000E+00      2    14    15
    17          -1           0           1      0.0000      0.0000   -114.0000      0.0556   4.700E+00   0.000E+00   1.000E-04   0.000E+00   0.000E+00           T           F   0.000E+00   0.000E+00   6.000E-01   0.000E+00   1.000E+00   1.000E+00   1.000E+00   0.000E+00   0.000E+00   0.000E+00      2    15    16
    18          -1           0           1      0.0000      0.0000   -113.5000      0.0602   4.700E+00   0.000E+00   1.000E-04   0.000E+00   0.000E+00           T           F   0.000E+00   0.000E+00   6.000E-01   0.000E+00   1.000E+00   1.000E+00   1.000E+00   0.000E+00   0.000E+00   0.000E+00      2    16    17
    19          -1           0           1      0.0000      0.0000   -113.0000      0.0648   4.700E+00   0.000E+00   1.000E-04   0.000E+00   0.000E+00           T           F   0.000E+00   0.000E+00   6.000E-01   0.000E+00   1.000E+00   1.000E+00   1.000E+00   0.000E+00   0.000E+00   0.000E+00      2    17    18
    20          -1           0           1      0.0000      0.0000   -112.5000      0.0694   4.700E+00   0.000E+00   1.000E-04   0.000E+00   0.000E+00           T           F   0.000E+00   0.000E+00   6.000E-01   0.000E+00   1.000E+00   1.000E+00   1.000E+00   0.000E+00   0.000E+00   0.000E+00      2    18    19
    21          -1           0           1      0.0000      0.0000   -112.0000      0.0741   4.700E+00   0.000E+00   1.000E-04   0.000E+00   0.000E+00           T           F   0.000E+00   0.000E+00   6.000E-01   0.000E+00   1.000E+00   1.000E+00   1.000E+00   0.000E+00   0.000E+00   0.000E+00      2    19    20
    22          -1           0           1      0.0000      0.0000   -111.5000      0.0787   4.700E+00   0.000E+00   1.000E-04   0.000E+00   0.000E+00           T           F   0.000E+00   0.000E+00   6.000E-01   0.000E+00   1.000E+00   1.000E+00   1.000E+00   0.000E+00   0.000E+00   0.000E+00      2    20    21
    23          -1           0           1      0.0000      0.0000   -111.0000      0.0833   4.700E+00   0.000E+00   1.000E-04   0.000E+00   0.000E+00           T           F   0.000E+00   0.000E+00   6.000E-01   0.000E+00   1.000E+00   1.000E+00   1.000E+00   0.000E+00   0.000E+00   0.000E+00      2    21    22
    24          -1           0           1      0.0000      0.0000   -110.5000      0.0880   4.700E+00   0.000E+00   1.000E-04   0.000E+00   0.000E+00           T           F   0.000E+00   0.000E+00   6.000E-01   0.000E+00   1.000E+00   1.000E+00   1.000E+00   0.000E+00   0.000E+00   0.000E+00      2    22    23
    25          -1           0           1      0.0000      0.0000   -110.0000      0.0926   4.700E+00   0.000E+00   1.000E-04   0.000E+00   0.000E+00           T           F   0.000E+00   0.000E+00   6.000E-01   0.000E+00   1.000E+00   1.000E+00   1.000E+00   0.000E+00   0.000E+00   0.000E+00      2    23    24
    26          -1           0           1      0.0000      0.0000   -109.5000      0.0972   4.700E+00   0.000E+00   1.000E-04   0.000E+00   0.000E+00           T           F   0.000E+00   0.000E+00   6.000E-01   0.000E+00   1.000E+00   1.000E+00   1.000E+00   0.000E+00   0.000E+00   0.000E+00      2    24    25
    27          -1           0           1      0.0000      0.0000   -109.0000      0.1019   4.700E+00   0.000E+00   1.000E-04   0.000E+00   0.000E+00           T           F   0.000E+00   0.000E+00   6.000E-01   0.000E+00   1.000E+00   1.000E+00   1.000E+00   0.000E+00   0.000E+00   0.000E+00      2    25    26
    28          -1           0           1      0.0000      0.0000   -108.5000      0.1065   4.700E+00   0.000E+00   1.000E-04   0.000E+00   0.000E+00           T           F   0.000E+00   0.000E+00   6.000E-01   0.000E+00   1.000E+00   1.000E+00   1.000E+00   0.000E+00   0.000E+00   0.000E+00      2    26    27
    29          -1           0           1      0.0000      0.0000   -108.0000      0.1111   4.700E+00   0.000E+00   1.000E-04   0.000E+00   0.000E+00           T           F   0.000E+00   0.000E+00   6.000E-01   0.000E+00   1.000E+00   1.000E+00   1.000E+00   0.000E+00   0.000E+00   0.000E+00      2    27    28
    30          -1           0           1      0.0000      0.0000   -107.5000      0.1157   4.700E+00   0.000E+00   1.000E-04   0.000E+00   0.000E+00           T           F   0.000E+00   0.000E+00   6.000E-01   0.000E+00   1.000E+00   1.000E+00   1.000E+00   0.000E+00   0.000E+00   0.000E+00      2    28    29
    31          -1           0           1      0.0000      0.0000   -107.0000      0.1204   4.700E+00   0.000E+00   1.000E-04   0.000E+00   0.000E+00           T           F   0.000E+00   0.000E+00   6.000E-01   0.000E+00   1.000E+00   1.000E+00   1.000E+00   0.000E+00   0.000E+00   0.000E+00      2    29    30
    32          -1           0           1      0.0000      0.0000   -106.5000      0.1250   4.700E+00   0.000E+00   1.000E-04   0.000E+00   0.000E+00           T           F   0.000E+00   0.000E+00   6.000E-01   0.000E+00   1.000E+00   1.000E+00   1.000E+00   0.000E+00   0.000E+00   0.000E+00      2    30    31
    33          -1           0           1      0.0000      0.0000   -106.0000      0.1296   4.700E+00   0.000E+00   1.000E-04   0.000E+00   0.000E+00           T           F   0.000E+00   0.000E+00   6.000E-01   0.000E+00   1.000E+00   1.000E+00   1.000E+00   0.000E+00   0.000E+00   0.000E+00      2    31    32
    34          -1           0           1      0.0000      0.0000   -105.5000      0.1343   4.700E+00   0.000E+00   1.000E-04   0.000E+00   0.000E+00           T           F   0.000E+00   0.000E+00   6.000E-01   0.000E+00   1.000E+00   1.000E+00   1.000E+00   0.000E+00   0.000E+00   0.000E+00      2    32    33
    35          -1           0           1      0.0000      0.0000   -105.0000      0.1389   4.700E+00   0.000E+00   1.000E-04   0.000E+00   0.000E+00           T           F   0.000E+00   0.000E+00   6.000E-01   0.000E+00   1.000E+00   1.000E+00   1.000E+00   0.000E+00   0.000E+00   0.000E+00      2    33    34
    36          -1           0           1      0.0000      0.0000   -104.5000      0.1435   4.700E+00   0.000E+00   1.000E-04   0.000E+00   0.000E+00           T           F   0.000E+00   0.000E+00   6.000E-01   0.000E+00   1.000E+00   1.000E+00   1.000E+00   0.000E+00   0.000E+00   0.000E+00      2    34    35
    37          -1           0           1      0.0000      0.0000   -104.0000      0.1481   4.700E+00   0.000E+00   1.000E-04   0.000E+00   0.000E+00           T           F   0.000E+00   0.000E+00   6.000E-01   0.000E+00   1.000E+00   1.000E+00   1.000E+00   0.000E+00   0.000E+00   0.000E+00      2    35    36
    38          -1           0           1      0.0000      0.0000   -103.5000      0.1528   4.700E+00   0.000E+00   1.000E-04   0.000E+00   0.000E+00           T           F   0.000E+00   0.000E+00   6.000E-01   0.000E+00   1.000E+00   1.000E+00   1.000E+00   0.000E+00   0.000E+00   0.000E+00      2    36    37
    39          -1           0           1      0.0000      0.0000   -103.0000      0.1574   4.700E+00   0.000E+00   1.000E-04   0.000E+00   0.000E+00           T           F   0.000E+00   0.000E+00   6.000E-01   0.000E+00   1.000E+00   1.000E+00   1.000E+00   0.000E+00   0.000E+00   0.000E+00      2    37    38
    40          -1           0           1      0.0000      0.0000   -102.5000      0.1620   4.700E+00   0.000E+00   1.000E-04   0.000E+00   0.000E+00           T           F   0.000E+00   0.000E+00   6.000E-01   0.000E+00   1.000E+00   1.000E+00   1.000E+00   0.000E+00   0.000E+00   0.000E+00      2    38    39
    41          -1           0           1      0.0000      0.0000   -102.0000      0.1667   4.700E+00   0.000E+00   1.000E-04   0.000E+00   0.000E+00           T           F   0.000E+00   0.000E+00   6.000E-01   0.000E+00   1.000E+00   1.000E+00   1.000E+00   0.000E+00   0.000E+00   0.000E+00      2    39    40
    42          -1           0           1      0.0000      0.0000   -101.5000      0.1713   4.700E+00   0.000E+00   1.000E-04   0.000E+00   0.000E+00           T           F   0.000E+00   0.000E+00   6.000E-01   0.000E+00   1.000E+00   1.000E+00   1.000E+00   0.000E+00   0.000E+00   0.000E+00      2    40    41
    43          -1           0           1      0.0000      0.0000   -101.0000      0.1759   4.700E+00   0.000E+00   1.000E-04   0.000E+00   0.000E+00           T           F   0.000E+00   0.000E+00   6.000E-01   0.000E+00   1.000E+00   1.000E+00   1.000E+00   0.000E+00   0.000E+00   0.000E+00      2    41    42
    44          -1           0           1      0.0000      0.0000   -100.5000      0.1806   4.700E+00   0.000E+00   1.000E-04   0.000E+00   0.000E+00           T           F   0.000E+00   0.000E+00   6.000E-01   0.000E+00   1.000E+00   1.000E+00   1.000E+00   0.000E+00   0.000E+00   0.000E+00      2    42    43
    45          -1           0           1      0.0000      0.0000   -100.0000      0.1852   4.700E+00   0.000E+00   1.000E-04   0.000E+00   0.000E+00           T           F   0.000E+00   0.000E+00   6.000E-01   0.000E+00   1.000E+00   1.000E+00   1.000E+00   0.000E+00   0.000E+00   0.000E+00      2    43    44
    46          -1           0           1      0.0000      0.0000    -99.5000      0.1898   4.700E+00   0.000E+00   1.000E-04   0.000E+00   0.000E+00           T           F   0.000E+00   0.000E+00   6.000E-01   0.000E+00   1.000E+00   1.000E+00   1.000E+00   0.000E+00   0.000E+00   0.000E+00      2    44    45
    47          -1           0           1      0.0000      0.0000    -99.0000      0.1944   4.700E+00   0.000E+00   1.000E-04   0.000E+00   0.000E+00           T           F   0.000E+00   0.000E+00   6.000E-01   0.000E+00   1.000E+00   1.000E+00   1.000E+00   0.000E+00   0.000E+00   0.000E+00      2    45    46
    48          -1           0           1      0.0000      0.0000    -98.5000      0.1991   4.700E+00   0.000E+00   1.000E-04   0.000E+00   0.000E+00           T           F   0.000E+00   0.000E+00   6.000E-01   0.000E+00   1.000E+00   1.000E+00   1.000E+00   0.000E+00   0.000E+00   0.000E+00      2    46    47
    49          -1           0           1      0.0000      0.0000    -98.0000      0.2037   4.700E+00   0.000E+00   1.000E-04   0.000E+00   0.000E+00           T           F   0.000E+00   0.000E+00   6.000E-01   0.000E+00   1.000E+00   1.000E+00   1.000E+00   0.000E+00   0.000E+00   0.000E+00      2    47    48
    50          -1           0           1      0.0000      0.0000    -97.5000      0.2083   4.700E+00   0.000E+00   1.000E-04   0.000E+00   0.000E+00           T           F   0.000E+00   0.000E+00   6.000E-01   0.000E+00   1.000E+00   1.000E+00   1.000E+00   0.000E+00   0.000E+00   0.000E+00      2    48    49
    51          -1           0           1      0.0000      0.0000    -97.0000      0.2130   4.700E+00   0.000E+00   1.000E-04   0.000E+00   0.000E+00           T           F   0.000E+00   0.000E+00   6.000E-01   0.000E+00   1.000E+00   1.000E+00   1.000E+00   0.000E+00   0.000E+00   0.000E+00      2    49    50
    52          -1           0           1      0.0000      0.0000    -96.5000      0.2176   4.700E+00   0.000E+00   1.000E-04   0.000E+00   0.000E+00           T           F   0.000E+00   0.000E+00   6.000E-01   0.000E+00   1.000E+00   1.000E+00   1.000E+00   0.000E+00   0.000E+00   0.000E+00      2    50    51
    53          -1           0           1      0.0000      0.0000    -96.0000      0.2222   4.700E+00   0.000E+00   1.000E-04   0.000E+00   0.000E+00           T           F   0.000E+00   0.000E+00   6.000E-01   0.000E+00   1.000E+00   1.000E+00   1.000E+00   0.000E+00   0.000E+00   0.000E+00      2    51    52
    54          -1           0           1      0.0000      0.0000    -95.5000      0.2269   4.700E+00   0.000E+00   1.000E-04   0.000E+00   0.000E+00           T           F   0.000E+00   0.000E+00   6.000E-01   0.000E+00   1.000E+00   1.000E+00   1.000E+00   0.000E+00   0.000E+00   0.000E+00      2    52    53
    55          -1           0           1      0.0000      0.0000    -95.0000      0.2315   4.700E+00   0.000E+00   1.000E-04   0.000E+00   0.000E+00           T           F   0.000E+00   0.000E+00   6.000E-01   0.000E+00   1.000E+00   1.000E+00   1.000E+00   0.000E+00   0.000E+00   0.000E+00      2    53    54
    56          -1           0           1      0.0000      0.0000    -94.5000      0.2361   4.700E+00   0.000E+00   1.000E-04   0.000E+00   0.000E+00           T           F   0.000E+00   0.000E+00   6.000E-01   0.000E+00   1.000E+00   1.000E+00   1.000E+00   0.000E+00   0.000E+00   0.000E+00      2    54    55
    57          -1           0           1      0.0000      0.0000    -94.0000      0.2407   4.700E+00   0.000E+00   1.000E-04   0.000E+00   0.000E+00           T           F   0.000E+00   0.000E+00   6.000E-01   0.000E+00   1.000E+00   1.000E+00   1.000E+00   0.000E+00   0.000E+00   0.000E+00      2    55    56
    58          -1           0           1      0.0000      0.0000    -93.5000      0.2454   4.700E+00   0.000E+00   1.000E-04   0.000E+00   0.000E+00           T           F   0.000E+00   0.000E+00   6.000E-01   0.000E+00   1.000E+00   1.000E+00   1.000E+00   0.000E+00   0.000E+00   0.000E+00      2    56    57
    59          -1           0           1      0.0000      0.0000    -93.0000      0.2500   4.700E+00   0.000E+00   1.000E-04   0.000E+00   0.000E+00           T           F   0.000E+00   0.000E+00   6.000E-01   0.000E+00   1.000E+00   1.000E+00   1.000E+00   0.000E+00   0.000E+00   0.000E+00      2    57    58
    60          -1           0           1      0.0000      0.0000    -92.5000      0.2546   4.700E+00   0.000E+00   1.000E-04   0.000E+00   0.000E+00           T           F   0.000E+00   0.000E+00   6.000E-01   0.000E+00   1.000E+00   1.000E+00   1.000E+00   0.000E+00   0.000E+00   0.000E+00      2    58    59
    61          -1           0           1      0.0000      0.0000    -92.0000      0.2593   4.700E+00   0.000E+00   1.000E-04   0.000E+00   0.000E+00           T           F   0.000E+00   0.000E+00   6.000E-01   0.000E+00   1.000E+00   1.000E+00   1.000E+00   0.000E+00   0.000E+00   0.000E+00      2    59    60
    62          -1           0           1      0.0000      0.0000    -91.5000      0.2639   4.700E+00   0.000E+00   1.000E-04   0.000E+00   0.000E+00           T           F   0.000E+00   0.000E+00   6.000E-01   0.000E+00   1.000E+00   1.000E+00   1.000E+00   0.000E+00   0.000E+00   0.000E+00      2    60    61
    63          -1           0           1      0.0000      0.0000    -91.0000      0.2685   4.700E+00   0.000E+00   1.000E-04   0.000E+00   0.000E+00           T           F   0.000E+00   0.000E+00   6.000E-01   0.000E+00   1.000E+00   1.000E+00   1.000E+00   0.000E+00   0.000E+00   0.000E+00      2    61    62
    64          -1           0           1      0.0000      0.0000    -90.5000      0.2731   4.700E+00   0.000E+00   1.000E-04   0.000E+00   0.000E+00           T           F   0.000E+00   0.000E+00   6.000E-01   0.000E+00   1.000E+00   1.000E+00   1.000E+00   0.000E+00   0.000E+00   0.000E+00      2    62    63
    65          -1           0           1      0.0000      0.0000    -90.0000      0.2778   4.700E+00   0.000E+00   1.000E-04   0.000E+00   0.000E+00           T           F   0.000E+00   0.000E+00   6.000E-01   0.000E+00   1.000E+00   1.000E+00   1.000E+00   0.000E+00   0.000E+00   0.000E+00      2    63    64
    66          -1           0           1      0.0000      0.0000    -89.5000      0.2824   4.700E+00   0.000E+00   1.000E-04   0.000E+00   0.000E+00           T           F   0.000E+00   0.000E+00   6.000E-01   0.000E+00   1.000E+00   1.000E+00   1.000E+00   0.000E+00   0.000E+00   0.000E+00      2    64    65
    67          -1           0           1      0.0000      0.0000    -89.0000      0.2870   4.700E+00   0.000E+00   1.000E-04   0.000E+00   0.000E+00           T           F   0.000E+00   0.000E+00   6.000E-01   0.000E+00   1.000E+00   1.000E+00   1.000E+00   0.000E+00   0.000E+00   0.000E+00      2    65    66
    68          -1           0           1      0.0000      0.0000    -88.5000      0.2917   4.700E+00   0.000E+00   1.000E-04   0.000E+00   0.000E+00           T           F   0.000E+00   0.000E+00   6.000E-01   0.000E+00   1.000E+00   1.000E+00   1.000E+00   0.000E+00   0.000E+00   0.000E+00      2    66    67
    69          -1           0           1      0.0000      0.0000    -88.0000      0.2963   4.700E+00   0.000E+00   1.000E-04   0.000E+00   0.000E+00           T           F   0.000E+00   0.000E+00   6.000E-01   0.000E+00   1.000E+00   1.000E+00   1.000E+00   0.000E+00   0.000E+00   0.000E+00      2    67    68
    70          -1           0           1      0.0000      0.0000    -87.5000      0.3009   4.700E+00   0.000E+00   1.000E-04   0.000E+00   0.000E+00           T           F   0.000E+00   0.000E+00   6.000E-01   0.000E+00   1.000E+00   1.000E+00   1.000E+00   0.000E+00   0.000E+00   0.000E+00      2    68    69
    71          -1           0           1      0.0000      0.0000    -87.0000      0.3056   4.700E+00   0.000E+00   1.000E-04   0.000E+00   0.000E+00           T           F   0.000E+00   0.000E+00   6.000E-01   0.000E+00   1.000E+00   1.000E+00   1.000E+00   0.000E+00   0.000E+00   0.000E+00      2    69    70
    72          -1           0           1      0.0000      0.0000    -86.5000      0.3102   4.700E+00   0.000E+00   1.000E-04   0.000E+00   0.000E+00           T           F   0.000E+00   0.000E+00   6.000E-01   0.000E+00   1.000E+00   1.000E+00   1.000E+00   0.000E+00   0.000E+00   0.000E+00      2    70    71
    73          -1           0           1      0.0000      0.0000    -86.0000      0.3148   4.700E+00   0.000E+00   1.000E-04   0.000E+00   0.000E+00           T           F   0.000E+00   0.000E+00   6.000E-01   0.000E+00   1.000E+00   1.000E+00   1.000E+00   0.000E+00   0.000E+00   0.000E+00      2    71    72
    74          -1           0           1      0.0000      0.0000    -85.5000      0.3194   4.700E+00   0.000E+00   1.000E-04   0.000E+00   0.000E+00           T           F   0.000E+00   0.000E+00   6.000E-01   0.000E+00   1.000E+00   1.000E+00   1.000E+00   0.000E+00   0.000E+00   0.000E+00      2    72    73
    75          -1           0           1      0.0000      0.0000    -85.0000      0.3241   4.700E+00   0.000E+00   1.000E-04   0.000E+00   0.000E+00           T           F   0.000E+00   0.000E+00   6.000E-01   0.000E+00   1.000E+00   1.000E+00   1.000E+00   0.000E+00   0.000E+00   0.000E+00      2    73    74
    76          -1           0           1      0.0000      0.0000    -84.5000      0.3287   4.700E+00   0.000E+00   1.000E-04   0.000E+00   0.000E+00           T           F   0.000E+00   0.000E+00   6.000E-01   0.000E+00   1.000E+00   1.000E+00   1.000E+00   0.000E+00   0.000E+00   0.000E+00      2    74    75
    77          -1           0           1      0.0000      0.0000    -84.0000      0.3333   4.700E+00   0.000E+00   1.000E-04   0.000E+00   0.000E+00           T           F   0.000E+00   0.000E+00   6.000E-01   0.000E+00   1.000E+00   1.000E+00   1.000E+00   0.000E+00   0.000E+00   0.000E+00      2    75    76
    78          -1           0           1      0.0000      0.0000    -83.5000      0.3380   4.700E+00   0.000E+00   1.000E-04   0.000E+00   0.000E+00           T           F   0.000E+00   0.000E+00   6.000E-01   0.000E+00   1.000E+00   1.000E+00   1.000E+00   0.000E+00   0.000E+00   0.000E+00      2    76    77
    79          -1           0           1      0.0000      0.0000    -83.0000      0.3426   4.700E+00   0.000E+00   1.000E-04   0.000E+00   0.000E+00           T           F   0.000E+00   0.000E+00   6.000E-01   0.000E+00   1.000E+00   1.000E+00   1.000E+00   0.000E+00   0.000E+00   0.000E+00      2    77    78
    80          -1           0           1      0.0000      0.0000    -82.5000      0.3472   4.700E+00   0.000E+00   1.000E-04   0.000E+00   0.000E+00           T           F   0.000E+00   0.000E+00   6.000E-01   0.000E+00   1.000E+00   1.000E+00   1.000E+00   0.000E+00   0.000E+00   0.000E+00      2    78    79
    81          -1           0           1      0.0000      0.0000    -82.0000      0.3519   4.700E+00   0.000E+00   1.000E-04   0.000E+00   0.000E+00           T           F   0.000E+00   0.000E+00   6.000E-01   0.000E+00   1.000E+00   1.000E+00   1.000E+00   0.000E+00   0.000E+00   0.000E+00      2    79    80
    82          -1           0           1      0.0000      0.0000    -81.5000      0.3565   4.700E+00   0.000E+00   1.000E-04   0.000E+00   0.000E+00           T           F   0.000E+00   0.000E+00   6.000E-01   0.000E+00   1.000E+00   1.000E+00   1.000E+00   0.000E+00   0.000E+00   0.000E+00      2    80    81
    83          -1           0           1      0.0000      0.0000    -81.0000      0.3611   4.700E+00   0.000E+00   1.000E-04   0.000E+00   0.000E+00           T           F   0.000E+00   0.000E+00   6.000E-01   0.000E+00   1.000E+00   1.000E+00   1.000E+00   0.000E+00   0.000E+00   0.000E+00      2    81    82
    84          -1           0           1      0.0000      0.0000    -80.5000      0.3657   4.700E+00   0.000E+00   1.000E-04   0.000E+00   0.000E+00           T           F   0.000E+00   0.000E+00   6.000E-01   0.000E+00   1.000E+00   1.000E+00   1.000E+00   0.000E+00   0.000E+00   0.000E+00      2    82    83
    85          -1           0           1      0.0000      0.0000    -80.0000      0.3704   4.700E+00   0.000E+00   1.000E-04   0.000E+00   0.000E+00           T           F   0.000E+00   0.000E+00   6.000E-01   0.000E+00   1.000E+00   1.000E+00   1.000E+00   0.000E+00   0.000E+00   0.000E+00      2    83    84
    86          -1           0           1      0.0000      0.0000    -79.5000      0.3750   4.700E+00   0.000E+00   1.000E-04   0.000E+00   0.000E+00           T           F   0.000E+00   0.000E+00   6.000E-01   0.000E+00   1.000E+00   1.000E+00   1.000E+00   0.000E+00   0.000E+00   0.000E+00      2    84    85
    87          -1           0           1      0.0000      0.0000    -79.0000      0.3796   4.700E+00   0.000E+00   1.000E-04   0.000E+00   0.000E+00           T           F   0.000E+00   0.000E+00   6.000E-01   0.000E+00   1.000E+00   1.000E+00   1.000E+00   0.000E+00   0.000E+00   0.000E+00      2    85    86
    88          -1           0           1      0.0000      0.0000    -78.5000      0.3843   4.700E+00   0.000E+00   1.000E-04   0.000E+00   0.000E+00           T           F   0.000E+00   0.000E+00   6.000E-01   0.000E+00   1.000E+00   1.000E+00   1.000E+00   0.000E+00   0.000E+00   0.000E+00      2    86    87
    89          -1           0           1      0.0000      0.0000    -78.0000      0.3889   4.700E+00   0.000E+00   1.000E-04   0.000E+00   0.000E+00           T           F   0.000E+00   0.000E+00   6.000E-01   0.000E+00   1.000E+00   1.000E+00   1.000E+00   0.000E+00   0.000E+00   0.000E+00      2    87    88
    90          -1           0           1      0.0000      0.0000    -77.5000      0.3935   4.700E+00   0.000E+00   1.000E-04   0.000E+00   0.000E+00           T           F   0.000E+00   0.000E+00   6.000E-01   0.000E+00   1.000E+00   1.000E+00   1.000E+00   0.000E+00   0.000E+00   0.000E+00      2    88    89
    91          -1           0           1      0.0000      0.0000    -77.0000      0.3981   4.700E+00   0.000E+00   1.000E-04   0.000E+00   0.000E+00           T           F   0.000E+00   0.000E+00   6.000E-01   0.000E+00   1.000E+00   1.000E+00   1.000E+00   0.000E+00   0.000E+00   0.000E+00      2    89    90
    92          -1           0           1      0.0000      0.0000    -76.5000      0.4028   4.700E+00   0.000E+00   1.000E-04   0.000E+00   0.000E+00           T           F   0.000E+00   0.000E+00   6.000E-01   0.000E+00   1.000E+00   1.000E+00   1.000E+00   0.000E+00   0.000E+00   0.000E+00      2    90    91
    93          -1           0           1      0.0000      0.0000    -76.0000      0.4074   4.700E+00   0.000E+00   1.000E-04   0.000E+00   0.000E+00           T           F   0.000E+00   0.000E+00   6.000E-01   0.000E+00   1.000E+00   1.000E+00   1.000E+00   0.000E+00   0.000E+00   0.000E+00      2    91    92
    94          -1           0           1      0.0000      0.0000    -75.5000      0.4120   4.700E+00   0.000E+00   1.000E-04   0.000E+00   0.000E+00           T           F   0.000E+00   0.000E+00   6.000E-01   0.000E+00   1.000E+00   1.000E+00   1.000E+00   0.000E+00   0.000E+00   0.000E+00      2    92    93
    95          -1           0           1      0.0000      0.0000    -75.0000      0.4167   4.700E+00   0.000E+00   1.000E-04   0.000E+00   0.000E+00           T           F   0.000E+00   0.000E+00   6.000E-01   0.000E+00   1.000E+00   1.000E+00   1.000E+00   0.000E+00   0.000E+00   0.000E+00      2    93    94
    96          -1           0           1      0.0000      0.0000    -74.5000      0.4213   4.700E+00   0.000E+00   1.000E-04   0.000E+00   0.000E+00           T           F   0.000E+00   0.000E+00   6.000E-01   0.000E+00   1.000E+00   1.000E+00   1.000E+00   0.000E+00   0.000E+00   0.000E+00      2    94    95
    97          -1           0           1      0.0000      0.0000    -74.0000      0.4259   4.700E+00   0.000E+00   1.000E-04   0.000E+00   0.000E+00           T           F   0.000E+00   0.000E+00   6.000E-01   0.000E+00   1.000E+00   1.000E+00   1.000E+00   0.000E+00   0.000E+00   0.000E+00      2    95    96
    98          -1           0           1      0.0000      0.0000    -73.5000      0.4306   4.700E+00   0.000E+00   1.000E-04   0.000E+00   0.000E+00           T           F   0.000E+00   0.000E+00   6.000E-01   0.000E+00   1.000E+00   1.000E+00   1.000E+00   0.000E+00   0.000E+00   0.000E+00      2    96    97
    99          -1           0           1      0.0000      0.0000    -73.0000      0.4352   4.700E+00   0.000E+00   1.000E-04   0.000E+00   0.000E+00           T           F   0.000E+00   0.000E+00   6.000E-01   0.000E+00   1.000E+00   1.000E+00   1.000E+00   0.000E+00   0.000E+00   0.000E+00      2    97    98
   100          -1           0           1      0.0000      0.0000    -72.5000      0.4398   4.700E+00   0.000E+00   1.000E-04   0.000E+00   0.000E+00           T           F   0.000E+00   0.000E+00   6.000E-01   0.000E+00   1.000E+00   1.000E+00   1.000E+00   0.000E+00   0.000E+00   0.000E+00      2    98    99
   101          -1           0           1      0.0000      0.0000    -72.0000      0.4444   4.700E+00   0.000E+00   1.000E-04   0.000E+00   0.000E+00           T           F   0.000E+00   0.000E+00   6.000E-01   0.000E+00   1.000E+00   1.000E+00   1.000E+00   0.000E+00   0.000E+00   0.000E+00      2    99   100
   102          -1           0           1      0.0000      0.0000    -71.5000      0.4491   4.700E+00   0.000E+00   1.000E-04   0.000E+00   0.000E+00           T           F   0.000E+00   0.000E+00   6.000E-01   0.000E+00   1.000E+00   1.000E+00   1.000E+00   0.000E+00   0.000E+00   0.000E+00      2   100   101
   103          -1           0           1      0.0000      0.0000    -71.0000      0.4537   4.700E+00   0.000E+00   1.000E-04   0.000E+00   0.000E+00           T           F   0.000E+00   0.000E+00   6.000E-01   0.000E+00   1.000E+00   1.000E+00   1.000E+00   0.000E+00   0.000E+00   0.000E+00      2   101   102
   104          -1           0           1      0.0000      0.0000    -70.5000      0.4583   4.700E+00   0.000E+00   1.000E-04   0.000E+00   0.000E+00           T           F   0.000E+00   0.000E+00   6.000E-01   0.000E+00   1.000E+00   1.000E+00   1.000E+00   0.000E+00   0.000E+00   0.000E+00      2   102   103
   105          -1           0           1      0.0000      0.0000    -70.0000      0.4630   4.700E+00   0.000E+00   1.000E-04   0.000E+00   0.000E+00           T           F   0.000E+00   0.000E+00   6.000E-01   0.000E+00   1.000E+00   1.000E+00   1.000E+00   0.000E+00   0.000E+00   0.000E+00      2   103   104
   106          -1           0           1      0.0000      0.0000    -69.5000      0.4676   4.700E+00   0.000E+00   1.000E-04   0.000E+00   0.000E+00           T           F   0.000E+00   0.000E+00   6.000E-01   0.000E+00   1.000E+00   1.000E+00   1.000E+00   0.000E+00   0.000E+00   0.000E+00      2   104   105
   107          -1           0           1      0.0000      0.0000    -69.0000      0.4722   4.700E+00   0.000E+00   1.000E-04   0.000E+00   0.000E+00           T           F   0.000E+00   0.000E+00   6.000E-01   0.000E+00   1.000E+00   1.000E+00   1.000E+00   0.000E+00   0.000E+00   0.000E+00      2   105   106
   108          -1           0           1      0.0000      0.0000    -68.5000      0.4769   4.700E+00   0.000E+00   1.000E-04   0.000E+00   0.000E+00           T           F   0.000E+00   0.000E+00   6.000E-01   0.000E+00   1.000E+00   1.000E+00   1.000E+00   0.000E+00   0.000E+00   0.000E+00      2   106   107
   109          -1           0           1      0.0000      0.0000    -68.0000      0.4815   4.700E+00   0.000E+00   1.000E-04   0.000E+00   0.000E+00           T           F   0.000E+00   0.000E+00   6.000E-01   0.000E+00   1.000E+00   1.000E+00   1.000E+00   0.000E+00   0.000E+00   0.000E+00      2   107   108
   110          -1           0           1      0.0000      0.0000    -67.5000      0.4861   4.700E+00   0.000E+00   1.000E-04   0.000E+00   0.000E+00           T           F   0.000E+00   0.000E+00   6.000E-01   0.000E+00   1.000E+00   1.000E+00   1.000E+00   0.000E+00   0.000E+00   0.000E+00      2   108   109
   111          -1           0           1      0.0000      0.0000    -67.0000      0.4907   4.700E+00   0.000E+00   1.000E-04   0.000E+00   0.000E+00           T           F   0.000E+00   0.000E+00   6.000E-01   0.000E+00   1.000E+00   1.000E+00   1.000E+00   0.000E+00   0.000E+00   0.000E+00      2   109   110
   112          -1           0           1      0.0000      0.0000    -66.5000      0.4954   4.700E+00   0.000E+00   1.000E-04   0.000E+00   0.000E+00           T           F   0.000E+00   0.000E+00   6.000E-01   0.000E+00   1.000E+00   1.000E+00   1.000E+00   0.000E+00   0.000E+00   0.000E+00      2   110   111
   113          -1           0           1      0.0000      0.0000    -66.0000      0.5000   4.700E+00   0.000E+00   1.000E-04   0.000E+00   0.000E+00           T           F   0.000E+00   0.000E+00   6.000E-01   0.000E+00   1.000E+00   1.000E+00   1.000E+00   0.000E+00   0.000E+00   0.000E+00      2   111   112
   114          -1           0           1      0.0000      0.0000    -65.5000      0.5046   4.700E+00   0.000E+00   1.000E-04   0.000E+00   0.000E+00           T           F   0.000E+00   0.000E+00   6.000E-01   0.000E+00   1.000E+00   1.000E+00   1.000E+00   0.000E+00   0.000E+00   0.000E+00      2   112   113
   115          -1           0           1      0.0000      0.0000    -65.0000      0.5093   4.700E+00   0.000E+00   1.000E-04   0.000E+00   0.000E+00           T           F   0.000E+00   0.000E+00   6.000E-01   0.000E+00   1.000E+00   1.000E+00   1.000E+00   0.000E+00   0.000E+00   0.000E+00      2   113   114
   116          -1           0           1      0.0000      0.0000    -64.5000      0.5139   4.700E+00   0.000E+00   1.000E-04   0.000E+00   0.000E+00           T           F   0.000E+00   0.000E+00   6.000E-01   0.000E+00   1.000E+00   1.000E+00   1.000E+00   0.000E+00   0.000E+00   0.000E+00      2   114   115
   117          -1           0           1      0.0000      0.0000    -64.0000      0.5185   4.700E+00   0.000E+00   1.000E-04   0.000E+00   0.000E+00           T           F   0.000E+00   0.000E+00   6.000E-01   0.000E+00   1.000E+00   1.000E+00   1.000E+00   0.000E+00   0.000E+00   0.000E+00      2   115   116
   118          -1           0           1      0.0000      0.0000    -63.5000      0.5231   4.700E+00   0.000E+00   1.000E-04   0.000E+00   0.000E+00           T           F   0.000E+00   0.000E+00   6.000E-01   0.000E+00   1.000E+00   1.000E+00   1.000E+00   0.000E+00   0.000E+00   0.000E+00      2   116   117
   119          -1           0           1      0.0000      0.0000    -63.0000      0.5278   4.700E+00   0.000E+00   1.000E-04   0.000E+00   0.000E+00           T           F   0.000E+00   0.000E+00   6.000E-01   0.000E+00   1.000E+00   1.000E+00   1.000E+00   0.000E+00   0.000E+00   0.000E+00      2   117   118
   120          -1           0           1      0.0000      0.0000    -62.5000      0.5324   4.700E+00   0.000E+00   1.000E-04   0.000E+00   0.000E+00           T           F   0.000E+00   0.000E+00   6.000E-01   0.000E+00   1.000E+00   1.000E+00   1.000E+00   0.000E+00   0.000E+00   0.000E+00      2   118   119
   121          -1           0           1      0.0000      0.0000    -62.0000      0.5370   4.700E+00   0.000E+00   1.000E-04   0.000E+00   0.000E+00           T           F   0.000E+00   0.000E+00   6.000E-01   0.000E+00   1.000E+00   1.000E+00   1.000E+00   0.000E+00   0.000E+00   0.000E+00      2   119   120
   122          -1           0           1      0.0000      0.0000    -61.5000      0.5417   4.700E+00   0.000E+00   1.000E-04   0.000E+00   0.000E+00           T           F   0.000E+00   0.000E+00   6.000E-01   0.000E+00   1.000E+00   1.000E+00   1.000E+00   0.000E+00   0.000E+00   0.000E+00      2   120   121
   123          -1           0           1      0.0000      0.0000    -61.0000      0.5463   4.700E+00   0.000E+00   1.000E-04   0.000E+00   0.000E+00           T           F   0.000E+00   0.000E+00   6.000E-01   0.000E+00   1.000E+00   1.000E+00   1.000E+00   0.000E+00   0.000E+00   0.000E+00      2   121   122
   124          -1           0           1      0.0000      0.0000    -60.5000      0.5509   4.700E+00   0.000E+00   1.000E-04   0.000E+00   0.000E+00           T           F   0.000E+00   0.000E+00   6.000E-01   0.000E+00   1.000E+00   1.000E+00   1.000E+00   0.000E+00   0.000E+00   0.000E+00      2   122   123
   125          -1           0           1      0.0000      0.0000    -60.0000      0.5556   4.700E+00   0.000E+00   1.000E-04   0.000E+00   0.000E+00           T           F   0.000E+00   0.000E+00   6.000E-01   0.000E+00   1.000E+00   1.000E+00   1.000E+00   0.000E+00   0.000E+00   0.000E+00      2   123   124
   126          -1           0           1      0.0000      0.0000    -59.5000      0.5602   4.700E+00   0.000E+00   1.000E-04   0.000E+00   0.000E+00           T           F   0.000E+00   0.000E+00   6.000E-01   0.000E+00   1.000E+00   1.000E+00   1.000E+00   0.000E+00   0.000E+00   0.000E+00      2   124   125
   127          -1           0           1      0.0000      0.0000    -59.0000      0.5648   4.700E+00   0.000E+00   1.000E-04   0.000E+00   0.000E+00           T           F   0.000E+00   0.000E+00   6.000E-01   0.000E+00   1.000E+00   1.000E+00   1.000E+00   0.000E+00   0.000E+00   0.000E+00      2   125   126
   128          -1           0           1      0.0000      0.0000    -58.5000      0.5694   4.700E+00   0.000E+00   1.000E-04   0.000E+00   0.000E+00           T           F   0.000E+00   0.000E+00   6.000E-01   0.000E+00   1.000E+00   1.000E+00   1.000E+00   0.000E+00   0.000E+00   0.000E+00      2   126   127
   129          -1           0           1      0.0000      0.0000    -58.0000      0.5741   4.700E+00   0.000E+00   1.000E-04   0.000E+00   0.000E+00           T           F   0.000E+00   0.000E+00   6.000E-01   0.000E+00   1.000E+00   1.000E+00   1.000E+00   0.000E+00   0.000E+00   0.000E+00      2   127   128
   130          -1           0           1      0.0000      0.0000    -57.5000      0.5787   4.700E+00   0.000E+00   1.000E-04   0.000E+00   0.000E+00           T           F   0.000E+00   0.000E+00   6.000E-01   0.000E+00   1.000E+00   1.000E+00   1.000E+00   0.000E+00   0.000E+00   0.000E+00      2   128   129
   131          -1           0           1      0.0000      0.0000    -57.0000      0.5833   4.700E+00   0.000E+00   1.000E-04   0.000E+00   0.000E+00           T           F   0.000E+00   0.000E+00   6.000E-01   0.000E+00   1.000E+00   1.000E+00   1.000E+00   0.000E+00   0.000E+00   0.000E+00      2   129   130
   132          -1           0           1      0.0000      0.0000    -56.5000      0.5880   4.700E+00   0.000E+00   1.000E-04   0.000E+00   0.000E+00           T           F   0.000E+00   0.000E+00   6.000E-01   0.000E+00   1.000E+00   1.000E+00   1.000E+00   0.000E+00   0.000E+00   0.000E+00      2   130   131
   133          -1           0           1      0.0000      0.0000    -56.0000      0.5926   4.700E+00   0.000E+00   1.000E-04   0.000E+00   0.000E+00           T           F   0.000E+00   0.000E+00   6.000E-01   0.000E+00   1.000E+00   1.000E+00   1.000E+00   0.000E+00   0.000E+00   0.000E+00      2   131   132
   134          -1           0           1      0.0000      0.0000    -55.5000      0.5972   4.700E+00   0.000E+00   1.000E-04   0.000E+00   0.000E+00           T           F   0.000E+00   0.000E+00   6.000E-01   0.000E+00   1.000E+00   1.000E+00   1.000E+00   0.000E+00   0.000E+00   0.000E+00      2   132   133
   135          -1           0           1      0.0000      0.0000    -55.0000      0.6019   4.700E+00   0.000E+00   1.000E-04   0.000E+00   0.000E+00           T           F   0.000E+00   0.000E+00   6.000E-01   0.000E+00   1.000E+00   1.000E+00   1.000E+00   0.000E+00   0.000E+00   0.000E+00      2   133   134
   136          -1           0           1      0.0000      0.0000    -54.5000      0.6065   4.700E+00   0.000E+00   1.000E-04   0.000E+00   0.000E+00           T           F   0.000E+00   0.000E+00   6.000E-01   0.000E+00   1.000E+00   1.000E+00   1.000E+00   0.000E+00   0.000E+00   0.000E+00      2   134   135
   137          -1           0           1      0.0000      0.0000    -54.0000      0.6111   4.700E+00   0.000E+00   1.000E-04   0.000E+00   0.000E+00           T           F   0.000E+00   0.000E+00   6.000E-01   0.000E+00   1.000E+00   1.000E+00   1.000E+00   0.000E+00   0.000E+00   0.000E+00      2   135   136
   138          -1           0           1      0.0000      0.0000    -53.5000      0.6157   4.700E+00   0.000E+00   1.000E-04   0.000E+00   0.000E+00           T           F   0.000E+00   0.000E+00   6.000E-01   0.000E+00   1.000E+00   1.000E+00   1.000E+00   0.000E+00   0.000E+00   0.000E+00      2   136   137
   139          -1           0           1      0.0000      0.0000    -53.0000      0.6204   4.700E+00   0.000E+00   1.000E-04   0.000E+00   0.000E+00           T           F   0.000E+00   0.000E+00   6.000E-01   0.000E+00   1.000E+00   1.000E+00   1.000E+00   0.000E+00   0.000E+00   0.000E+00      2   137   138
   140          -1           0           1      0.0000      0.0000    -52.5000      0.6250   4.700E+00   0.000E+00   1.000E-04   0.000E+00   0.000E+00           T           F   0.000E+00   0.000E+00   6.000E-01   0.000E+00   1.000E+00   1.000E+00   1.000E+00   0.000E+00   0.000E+00   0.000E+00      2   138   139
   141          -1           0           1      0.0000      0.0000    -52.0000      0.6296   4.700E+00   0.000E+00   1.000E-04   0.000E+00   0.000E+00           T           F   0.000E+00   0.000E+00   6.000E-01   0.000E+00   1.000E+00   1.000E+00   1.000E+00   0.000E+00   0.000E+00   0.000E+00      2   139   140
   142          -1           0           1      0.0000      0.0000    -51.5000      0.6343   4.700E+00   0.000E+00   1.000E-04   0.000E+00   0.000E+00           T           F   0.000E+00   0.000E+00   6.000E-01   0.000E+00   1.000E+00   1.000E+00   1.000E+00   0.000E+00   0.000E+00   0.000E+00      2   140   141
   143          -1           0           1      0.0000      0.0000    -51.0000      0.6389   4.700E+00   0.000E+00   1.000E-04   0.000E+00   0.000E+00           T           F   0.000E+00   0.000E+00   6.000E-01   0.000E+00   1.000E+00   1.000E+00   1.000E+00   0.000E+00   0.000E+00   0.000E+00      2   141   142
   144          -1           0           1      0.0000      0.0000    -50.5000      0.6435   4.700E+00   0.000E+00   1.000E-04   0.000E+00   0.000E+00           T           F   0.000E+00   0.000E+00   6.000E-01   0.000E+00   1.000E+00   1.000E+00   1.000E+00   0.000E+00   0.000E+00   0.000E+00      2   142   143
   145          -1           0           1      0.0000      0.0000    -50.0000      0.6481   4.700E+00   0.000E+00   1.000E-04   0.000E+00   0.000E+00           T           F   0.000E+00   0.000E+00   6.000E-01   0.000E+00   1.000E+00   1.000E+00   1.000E+00   0.000E+00   0.000E+00   0.000E+00      2   143   144
   146          -1           0           1      0.0000      0.0000    -49.5000      0.6528   4.700E+00   0.000E+00   1.000E-04   0.000E+00   0.000E+00           T           F   0.000E+00   0.000E+00   6.000E-01   0.000E+00   1.000E+00   1.000E+00   1.000E+00   0.000E+00   0.000E+00   0.000E+00      2   144   145
   147          -1           0           1      0.0000      0.0000    -49.0000      0.6574   4.700E+00   0.000E+00   1.000E-04   0.000E+00   0.000E+00           T           F   0.000E+00   0.000E+00   6.000E-01   0.000E+00   1.000E+00   1.000E+00   1.000E+00   0.000E+00   0.000E+00   0.000E+00      2   145   146
   148          -1           0           1      0.0000      0.0000    -48.5000      0.6620   4.700E+00   0.000E+00   1.000E-04   0.000E+00   0.000E+00           T           F   0.000E+00   0.000E+00   6.000E-01   0.000E+00   1.000E+00   1.000E+00   1.000E+00   0.000E+00   0.000E+00   0.000E+00      2   146   147
   149          -1           0           1      0.0000      0.0000    -48.0000      0.6667   4.700E+00   0.000E+00   1.000E-04   0.000E+00   0.000E+00           T           F   0.000E+00   0.000E+00   6.000E-01   0.000E+00   1.000E+00   1.000E+00   1.000E+00   0.000E+00   0.000E+00   0.000E+00      2   147   148
   150          -1           0           1      0.0000      0.0000    -47.5000      0.6713   4.700E+00   0.000E+00   1.000E-04   0.000E+00   0.000E+00           T           F   0.000E+00   0.000E+00   6.000E-01   0.000E+00   1.000E+00   1.000E+00   1.000E+00   0.000E+00   0.000E+00   0.000E+00      2   148   149
   151          -1           0           1      0.0000      0.0000    -47.0000      0.6759   4.700E+00   0.000E+00   1.000E-04   0.000E+00   0.000E+00           T           F   0.000E+00   0.000E+00   6.000E-01   0.000E+00   1.000E+00   1.000E+00   1.000E+00   0.000E+00   0.000E+00   0.000E+00      2   149   150
   152          -1           0           1      0.0000      0.0000    -46.5000      0.6806   4.700E+00   0.000E+00   1.000E-04   0.000E+00   0.000E+00           T           F   0.000E+00   0.000E+00   6.000E-01   0.000E+00   1.000E+00   1.000E+00   1.000E+00   0.000E+00   0.000E+00   0.000E+00      2   150   151
   153          -1           0           1      0.0000      0.0000    -46.0000      0.6852   4.700E+00   0.000E+00   1.000E-04   0.000E+00   0.000E+00           T           F   0.000E+00   0.000E+00   6.000E-01   0.000E+00   1.000E+00   1.000E+00   1.000E+00   0.000E+00   0.000E+00   0.000E+00      2   151   152
   154          -1           0           1      0.0000      0.0000    -45.5000      0.6898   4.700E+00   0.000E+00   1.000E-04   0.000E+00   0.000E+00           T           F   0.000E+00   0.000E+00   6.000E-01   0.000E+00   1.000E+00   1.000E+00   1.000E+00   0.000E+00   0.000E+00   0.000E+00      2   152   153
   155          -1           0           1      0.0000      0.0000    -45.0000      0.6944   4.700E+00   0.000E+00   1.000E-04   0.000E+00   0.000E+00           T           F   0.000E+00   0.000E+00   6.000E-01   0.000E+00   1.000E+00   1.000E+00   1.000E+00   0.000E+00   0.000E+00   0.000E+00      2   153   154
   156          -1           0           1      0.0000      0.0000    -44.5000      0.6991   4.700E+00   0.000E+00   1.000E-04   0.000E+00   0.000E+00           T           F   0.000E+00   0.000E+00   6.000E-01   0.000E+00   1.000E+00   1.000E+00   1.000E+00   0.000E+00   0.000E+00   0.000E+00      2   154   155
   157          -1           0           1      0.0000      0.0000    -44.0000      0.7037   4.700E+00   0.000E+00   1.000E-04   0.000E+00   0.000E+00           T           F   0.000E+00   0.000E+00   6.000E-01   0.000E+00   1.000E+00   1.000E+00   1.000E+00   0.000E+00   0.000E+00   0.000E+00      2   155   156
   158          -1           0           1      0.0000      0.0000    -43.5000      0.7083   4.700E+00   0.000E+00   1.000E-04   0.000E+00   0.000E+00           T           F   0.000E+00   0.000E+00   6.000E-01   0.000E+00   1.000E+00   1.000E+00   1.000E+00   0.000E+00   0.000E+00   0.000E+00      2   156   157
   159          -1           0           1      0.0000      0.0000    -43.0000      0.7130   4.700E+00   0.000E+00   1.000E-04   0.000E+00   0.000E+00           T           F   0.000E+00   0.000E+00   6.000E-01   0.000E+00   1.000E+00   1.000E+00   1.000E+00   0.000E+00   0.000E+00   0.000E+00      2   157   158
   160          -1           0           1      0.0000      0.0000    -42.5000      0.7176   4.700E+00   0.000E+00   1.000E-04   0.000E+00   0.000E+00           T           F   0.000E+00   0.000E+00   6.000E-01   0.000E+00   1.000E+00   1.000E+00   1.000E+00   0.000E+00   0.000E+00   0.000E+00      2   158   159
   161          -1           0           1      0.0000      0.0000    -42.0000      0.7222   4.700E+00   0.000E+00   1.000E-04   0.000E+00   0.000E+00           T           F   0.000E+00   0.000E+00   6.000E-01   0.000E+00   1.000E+00   1.000E+00   1.000E+00   0.000E+00   0.000E+00   0.000E+00      2   159   160
   162          -1           0           1      0.0000      0.0000    -41.5000      0.7269   4.700E+00   0.000E+00   1.000E-04   0.000E+00   0.000E+00           T           F   0.000E+00   0.000E+00   6.000E-01   0.000E+00   1.000E+00   1.000E+00   1.000E+00   0.000E+00   0.000E+00   0.000E+00      2   160   161
   163          -1           0           1      0.0000      0.0000    -41.0000      0.7315   4.700E+00   0.000E+00   1.000E-04   0.000E+00   0.000E+00           T           F   0.000E+00   0.000E+00   6.000E-01   0.000E+00   1.000E+00   1.000E+00   1.000E+00   0.000E+00   0.000E+00   0.000E+00      2   161   162
   164          -1           0           1      0.0000      0.0000    -40.5000      0.7361   4.700E+00   0.000E+00   1.000E-04   0.000E+00   0.000E+00           T           F   0.000E+00   0.000E+00   6.000E-01   0.000E+00   1.000E+00   1.000E+00   1.000E+00   0.000E+00   0.000E+00   0.000E+00      2   162   163
   165          -1           0           1      0.0000      0.0000    -40.0000      0.7407   4.700E+00   0.000E+00   1.000E-04   0.000E+00   0.000E+00           T           F   0.000E+00   0.000E+00   6.000E-01   0.000E+00   1.000E+00   1.000E+00   1.000E+00   0.000E+00   0.000E+00   0.000E+00      2   163   164
   166          -1           0           1      0.0000      0.0000    -39.5000      0.7454   4.700E+00   0.000E+00   1.000E-04   0.000E+00   0.000E+00           T           F   0.000E+00   0.000E+00   6.000E-01   0.000E+00   1.000E+00   1.000E+00   1.000E+00   0.000E+00   0.000E+00   0.000E+00      2   164   165
   167          -1           0           1      0.0000      0.0000    -39.0000      0.7500   4.700E+00   0.000E+00   1.000E-04   0.000E+00   0.000E+00           T           F   0.000E+00   0.000E+00   6.000E-01   0.000E+00   1.000E+00   1.000E+00   1.000E+00   0.000E+00   0.000E+00   0.000E+00      2   165   166
   168          -1           0           1      0.0000      0.0000    -38.5000      0.7546   4.700E+00   0.000E+00   1.000E-04   0.000E+00   0.000E+00           T           F   0.000E+00   0.000E+00   6.000E-01   0.000E+00   1.000E+00   1.000E+00   1.000E+00   0.000E+00   0.000E+00   0.000E+00      2   166   167
   169          -1           0           1      0.0000      0.0000    -38.0000      0.7593   4.700E+00   0.000E+00   1.000E-04   0.000E+00   0.000E+00           T           F   0.000E+00   0.000E+00   6.000E-01   0.000E+00   1.000E+00   1.000E+00   1.000E+00   0.000E+00   0.000E+00   0.000E+00      2   167   168
   170          -1           0           1      0.0000      0.0000    -37.5000      0.7639   4.700E+00   0.000E+00   1.000E-04   0.000E+00   0.000E+00           T           F   0.000E+00   0.000E+00   6.000E-01   0.000E+00   1.000E+00   1.000E+00   1.000E+00   0.000E+00   0.000E+00   0.000E+00      2   168   169
   171          -1           0           1      0.0000      0.0000    -37.0000      0.7685   4.700E+00   0.000E+00   1.000E-04   0.000E+00   0.000E+00           T           F   0.000E+00   0.000E+00   6.000E-01   0.000E+00   1.000E+00   1.000E+00   1.000E+00   0.000E+00   0.000E+00   0.000E+00      2   169   170
   172          -1           0           1      0.0000      0.0000    -36.5000      0.7731   4.700E+00   0.000E+00   1.000E-04   0.000E+00   0.000E+00           T           F   0.000E+00   0.000E+00   6.000E-01   0.000E+00   1.000E+00   1.000E+00   1.000E+00   0.000E+00   0.000E+00   0.000E+00      2   170   171
   173          -1           0           1      0.0000      0.0000    -36.0000      0.7778   4.700E+00   0.000E+00   1.000E-04   0.000E+00   0.000E+00           T           F   0.000E+00   0.000E+00   6.000E-01   0.000E+00   1.000E+00   1.000E+00   1.000E+00   0.000E+00   0.000E+00   0.000E+00      2   171   172
   174          -1           0           1      0.0000      0.0000    -35.5000      0.7824   4.700E+00   0.000E+00   1.000E-04   0.000E+00   0.000E+00           T           F   0.000E+00   0.000E+00   6.000E-01   0.000E+00   1.000E+00   1.000E+00   1.000E+00   0.000E+00   0.000E+00   0.000E+00      2   172   173
   175          -1           0           1      0.0000      0.0000    -35.0000      0.7870   4.700E+00   0.000E+00   1.000E-04   0.000E+00   0.000E+00           T           F   0.000E+00   0.000E+00   6.000E-01   0.000E+00   1.000E+00   1.000E+00   1.000E+00   0.000E+00   0.000E+00   0.000E+00      2   173   174
   176          -1           0           1      0.0000      0.0000    -34.5000      0.7917   4.700E+00   0.000E+00   1.000E-04   0.000E+00   0.000E+00           T           F   0.000E+00   0.000E+00   6.000E-01   0.000E+00   1.000E+00   1.000E+00   1.000E+00   0.000E+00   0.000E+00   0.000E+00      2   174   175
   177          -1           0           1      0.0000      0.0000    -34.0000      0.7963   4.700E+00   0.000E+00   1.000E-04   0.000E+00   0.000E+00           T           F   0.000E+00   0.000E+00   6.000E-01   0.000E+00   1.000E+00   1.000E+00   1.000E+00   0.000E+00   0.000E+00   0.000E+00      2   175   176
   178          -1           0           1      0.0000      0.0000    -33.5000      0.8009   4.700E+00   0.000E+00   1.000E-04   0.000E+00   0.000E+00           T           F   0.000E+00   0.000E+00   6.000E-01   0.000E+00   1.000E+00   1.000E+00   1.000E+00   0.000E+00   0.000E+00   0.000E+00      2   176   177
   179          -1           0           1      0.0000      0.0000    -33.0000      0.8056   4.700E+00   0.000E+00   1.000E-04   0.000E+00   0.000E+00           T           F   0.000E+00   0.000E+00   6.000E-01   0.000E+00   1.000E+00   1.000E+00   1.000E+00   0.000E+00   0.000E+00   0.000E+00      2   177   178
   180          -1           0           1      0.0000      0.0000    -32.5000      0.8102   4.700E+00   0.000E+00   1.000E-04   0.000E+00   0.000E+00           T           F   0.000E+00   0.000E+00   6.000E-01   0.000E+00   1.000E+00   1.000E+00   1.000E+00   0.000E+00   0.000E+00   0.000E+00      2   178   179
   181          -1           0           1      0.0000      0.0000    -32.0000      0.8148   4.700E+00   0.000E+00   1.000E-04   0.000E+00   0.000E+00           T           F   0.000E+00   0.000E+00   6.000E-01   0.000E+00   1.000E+00   1.000E+00   1.000E+00   0.000E+00   0.000E+00   0.000E+00      2   179   180
   182          -1           0           1      0.0000      0.0000    -31.5000      0.8194   4.700E+00   0.000E+00   1.000E-04   0.000E+00   0.000E+00           T           F   0.000E+00   0.000E+00   6.000E-01   0.000E+00   1.000E+00   1.000E+00   1.000E+00   0.000E+00   0.000E+00   0.000E+00      2   180   181
   183          -1           0           1      0.0000      0.0000    -31.0000      0.8241   4.700E+00   0.000E+00   1.000E-04   0.000E+00   0.000E+00           T           F   0.000E+00   0.000E+00   6.000E-01   0.000E+00   1.000E+00   1.000E+00   1.000E+00   0.000E+00   0.000E+00   0.000E+00      2   181   182
   184          -1           0           1      0.0000      0.0000    -30.5000      0.8287   4.700E+00   0.000E+00   1.000E-04   0.000E+00   0.000E+00           T           F   0.000E+00   0.000E+00   6.000E-01   0.000E+00   1.000E+00   1.000E+00   1.000E+00   0.000E+00   0.000E+00   0.000E+00      2   182   183
   185          -1           0           1      0.0000      0.0000    -30.0000      0.8333   4.700E+00   0.000E+00   1.000E-04   0.000E+00   0.000E+00           T           F   0.000E+00   0.000E+00   6.000E-01   0.000E+00   1.000E+00   1.000E+00   1.000E+00   0.000E+00   0.000E+00   0.000E+00      2   183   184
   186          -1           0           1      0.0000      0.0000    -29.5000      0.8380   4.700E+00   0.000E+00   1.000E-04   0.000E+00   0.000E+00           T           F   0.000E+00   0.000E+00   6.000E-01   0.000E+00   1.000E+00   1.000E+00   1.000E+00   0.000E+00   0.000E+00   0.000E+00      2   184   185
   187          -1           0           1      0.0000      0.0000    -29.0000      0.8426   4.700E+00   0.000E+00   1.000E-04   0.000E+00   0.000E+00           T           F   0.000E+00   0.000E+00   6.000E-01   0.000E+00   1.000E+00   1.000E+00   1.000E+00   0.000E+00   0.000E+00   0.000E+00      2   185   186
   188          -1           0           1      0.0000      0.0000    -28.5000      0.8472   4.700E+00   0.000E+00   1.000E-04   0.000E+00   0.000E+00           T           F   0.000E+00   0.000E+00   6.000E-01   0.000E+00   1.000E+00   1.000E+00   1.000E+00   0.000E+00   0.000E+00   0.000E+00      2   186   187
   189          -1           0           1      0.0000      0.0000    -28.0000      0.8519   4.700E+00   0.000E+00   1.000E-04   0.000E+00   0.000E+00           T           F   0.000E+00   0.000E+00   6.000E-01   0.000E+00   1.000E+00   1.000E+00   1.000E+00   0.000E+00   0.000E+00   0.000E+00      2   187   188
   190          -1           0           1      0.0000      0.0000    -27.5000      0.8565   4.700E+00   0.000E+00   1.000E-04   0.000E+00   0.000E+00           T           F   0.000E+00   0.000E+00   6.000E-01   0.000E+00   1.000E+00   1.000E+00   1.000E+00   0.000E+00   0.000E+00   0.000E+00      2   188   189
   191          -1           0           1      0.0000      0.0000    -27.0000      0.8611   4.700E+00   0.000E+00   1.000E-04   0.000E+00   0.000E+00           T           F   0.000E+00   0.000E+00   6.000E-01   0.000E+00   1.000E+00   1.000E+00   1.000E+00   0.000E+00   0.000E+00   0.000E+00      2   189   190
   192          -1           0           1      0.0000      0.0000    -26.5000      0.8657   4.700E+00   0.000E+00   1.000E-04   0.000E+00   0.000E+00           T           F   0.000E+00   0.000E+00   6.000E-01   0.000E+00   1.000E+00   1.000E+00   1.000E+00   0.000E+00   0.000E+00   0.000E+00      2   190   191
   193          -1           0           1      0.0000      0.0000    -26.0000      0.8704   4.700E+00   0.000E+00   1.000E-04   0.000E+00   0.000E+00           T           F   0.000E+00   0.000E+00   6.000E-01   0.000E+00   1.000E+00   1.000E+00   1.000E+00   0.000E+00   0.000E+00   0.000E+00      2   191   192
   194          -1           0           1      0.0000      0.0000    -25.5000      0.8750   4.700E+00   0.000E+00   1.000E-04   0.000E+00   0.000E+00           T           F   0.000E+00   0.000E+00   6.000E-01   0.000E+00   1.000E+00   1.000E+00   1.000E+00   0.000E+00   0.000E+00   0.000E+00      2   192   193
   195          -1           0           1      0.0000      0.0000    -25.0000      0.8796   4.700E+00   0.000E+00   1.000E-04   0.000E+00   0.000E+00           T           F   0.000E+00   0.000E+00   6.000E-01   0.000E+00   1.000E+00   1.000E+00   1.000E+00   0.000E+00   0.000E+00   0.000E+00      2   193   194
   196          -1           0           1      0.0000      0.0000    -24.5000      0.8843   4.700E+00   0.000E+00   1.000E-04   0.000E+00   0.000E+00           T           F   0.000E+00   0.000E+00   6.000E-01   0.000E+00   1.000E+00   1.000E+00   1.000E+00   0.000E+00   0.000E+00   0.000E+00      2   194   195
   197          -1           0           1      0.0000      0.0000    -24.0000      0.8889   4.700E+00   0.000E+00   1.000E-04   0.000E+00   0.000E+00           T           F   0.000E+00   0.000E+00   6.000E-01   0.000E+00   1.000E+00   1.000E+00   1.000E+00   0.000E+00   0.000E+00   0.000E+00      2   195   196
   198          -1           0           1      0.0000      0.0000    -23.5000      0.8935   4.700E+00   0.000E+00   1.000E-04   0.000E+00   0.000E+00           T           F   0.000E+00   0.000E+00   6.000E-01   0.000E+00   1.000E+00   1.000E+00   1.000E+00   0.000E+00   0.000E+00   0.000E+00      2   196   197
   199          -1           0           1      0.0000      0.0000    -23.0000      0.8981   4.700E+00   0.000E+00   1.000E-04   0.000E+00   0.000E+00           T           F   0.000E+00   0.000E+00   6.000E-01   0.000E+00   1.000E+00   1.000E+00   1.000E+00   0.000E+00   0.000E+00   0.000E+00      2   197   198
   200          -1           0           1      0.0000      0.0000    -22.5000      0.9028   4.700E+00   0.000E+00   1.000E-04   0.000E+00   0.000E+00           T           F   0.000E+00   0.000E+00   6.000E-01   0.000E+00   1.000E+00   1.000E+00   1.000E+00   0.000E+00   0.000E+00   0.000E+00      2   198   199
   201          -1           0           1      0.0000      0.0000    -22.0000      0.9074   4.700E+00   0.000E+00   1.000E-04   0.000E+00   0.000E+00           T           F   0.000E+00   0.000E+00   6.000E-01   0.000E+00   1.000E+00   1.000E+00   1.000E+00   0.000E+00   0.000E+00   0.000E+00      2   199   200
   202          -1           0           1      0.0000      0.0000    -21.5000      0.9120   4.700E+00   0.000E+00   1.000E-04   0.000E+00   0.000E+00           T           F   0.000E+00   0.000E+00   6.000E-01   0.000E+00   1.000E+00   1.000E+00   1.000E+00   0.000E+00   0.000E+00   0.000E+00      2   200   201
   203          -1           0           1      0.0000      0.0000    -21.0000      0.9167   4.700E+00   0.000E+00   1.000E-04   0.000E+00   0.000E+00           T           F   0.000E+00   0.000E+00   6.000E-01   0.000E+00   1.000E+00   1.000E+00   1.000E+00   0.000E+00   0.000E+00   0.000E+00      2   201   202
   204          -1           0           1      0.0000      0.0000    -20.5000      0.9213   4.700E+00   0.000E+00   1.000E-04   0.000E+00   0.000E+00           T           F   0.000E+00   0.000E+00   6.000E-01   0.000E+00   1.000E+00   1.000E+00   1.000E+00   0.000E+00   0.000E+00   0.000E+00      2   202   203
   205          -1           0           1      0.0000      0.0000    -20.0000      0.9259   4.700E+00   0.000E+00   1.000E-04   0.000E+00   0.000E+00           T           F   0.000E+00   0.000E+00   6.000E-01   0.000E+00   1.000E+00   1.000E+00   1.000E+00   0.000E+00   0.000E+00   0.000E+00      2   203   204
   206          -1           0           1      0.0000      0.0000    -19.5000      0.9306   4.700E+00   0.000E+00   1.000E-04   0.000E+00   0.000E+00           T           F   0.000E+00   0.000E+00   6.000E-01   0.000E+00   1.000E+00   1.000E+00   1.000E+00   0.000E+00   0.000E+00   0.000E+00      2   204   205
   207          -1           0           1      0.0000      0.0000    -19.0000      0.9352   4.700E+00   0.000E+00   1.000E-04   0.000E+00   0.000E+00           T           F   0.000E+00   0.000E+00   6.000E-01   0.000E+00   1.000E+00   1.000E+00   1.000E+00   0.000E+00   0.000E+00   0.000E+00      2   205   206
   208          -1           0           1      0.0000      0.0000    -18.5000      0.9398   4.700E+00   0.000E+00   1.000E-04   0.000E+00   0.000E+00           T           F   0.000E+00   0.000E+00   6.000E-01   0.000E+00   1.000E+00   1.000E+00   1.000E+00   0.000E+00   0.000E+00   0.000E+00      2   206   207
   209          -1           0           1      0.0000      0.0000    -18.0000      0.9444   4.700E+00   0.000E+00   1.000E-04   0.000E+00   0.000E+00           T           F   0.000E+00   0.000E+00   6.000E-01   0.000E+00   1.000E+00   1.000E+00   1.000E+00   0.000E+00   0.000E+00   0.000E+00      2   207   208
   210          -1           0           1      0.0000      0.0000    -17.5000      0.9491   4.700E+00   0.000E+00   1.000E-04   0.000E+00   0.000E+00           T           F   0.000E+00   0.000E+00   6.000E-01   0.000E+00   1.000E+00   1.000E+00   1.000E+00   0.000E+00   0.000E+00   0.000E+00      2   208   209
   211          -1           0           1      0.0000      0.0000    -17.0000      0.9537   4.700E+00   0.000E+00   1.000E-04   0.000E+00   0.000E+00           T           F   0.000E+00   0.000E+00   6.000E-01   0.000E+00   1.000E+00   1.000E+00   1.000E+00   0.000E+00   0.000E+00   0.000E+00      2   209   210
   212          -1           0           1      0.0000      0.0000    -16.5000      0.9583   4.700E+00   0.000E+00   1.000E-04   0.000E+00   0.000E+00           T           F   0.000E+00   0.000E+00   6.000E-01   0.000E+00   1.000E+00   1.000E+00   1.000E+00   0.000E+00   0.000E+00   0.000E+00      2   210   211
   213          -1           0           1      0.0000      0.0000    -16.0000      0.9630   4.700E+00   0.000E+00   1.000E-04   0.000E+00   0.000E+00           T           F   0.000E+00   0.000E+00   6.000E-01   0.000E+00   1.000E+00   1.000E+00   1.000E+00   0.000E+00   0.000E+00   0.000E+00      2   211   212
   214          -1           0           1      0.0000      0.0000    -15.5000      0.9676   4.700E+00   0.000E+00   1.000E-04   0.000E+00   0.000E+00           T           F   0.000E+00   0.000E+00   6.000E-01   0.000E+00   1.000E+00   1.000E+00   1.000E+00   0.000E+00   0.000E+00   0.000E+00      2   212   213
   215          -1           0           1      0.0000      0.0000    -15.0000      0.9722   4.700E+00   0.000E+00   1.000E-04   0.000E+00   0.000E+00           T           F   0.000E+00   0.000E+00   6.000E-01   0.000E+00   1.000E+00   1.000E+00   1.000E+00   0.000E+00   0.000E+00   0.000E+00      2   213   214
   216          -1           0           1      0.0000      0.0000    -14.5000      0.9769   4.700E+00   0.000E+00   1.000E-04   0.000E+00   0.000E+00           T           F   0.000E+00   0.000E+00   6.000E-01   0.000E+00   1.000E+00   1.000E+00   1.000E+00   0.000E+00   0.000E+00   0.000E+00      2   214   215
   217          -1           0           1      0.0000      0.0000    -14.0000      0.9815   4.700E+00   0.000E+00   1.000E-04   0.000E+00   0.000E+00           T           F   0.000E+00   0.000E+00   6.000E-01   0.000E+00   1.000E+00   1.000E+00   1.000E+00   0.000E+00   0.000E+00   0.000E+00      2   215   216
   218          -1           0           1      0.0000      0.0000    -13.5000      0.9861   4.700E+00   0.000E+00   1.000E-04   0.000E+00   0.000E+00           T           F   0.000E+00   0.000E+00   6.000E-01   0.000E+00   1.000E+00   1.000E+00   1.000E+00   0.000E+00   0.000E+00   0.000E+00      2   216   217
   219          -1           0           1      0.0000      0.0000    -13.0000      0.9907   4.700E+00   0.000E+00   1.000E-04   0.000E+00   0.000E+00           T           F   0.000E+00   0.000E+00   6.000E-01   0.000E+00   1.000E+00   1.000E+00   1.000E+00   0.000E+00   0.000E+00   0.000E+00      2   217   218
   220          -1           0           1      0.0000      0.0000    -12.5000      0.9954   4.700E+00   0.000E+00   1.000E-04   0.000E+00   0.000E+00           T           F   0.000E+00   0.000E+00   6.000E-01   0.000E+00   1.000E+00   1.000E+00   1.000E+00   0.000E+00   0.000E+00   0.000E+00      2   218   219
   221          -1           0           2      0.0000      0.0000    -11.5000      0.0625   4.609E+00  -1.812E-01   1.000E-04   0.000E+00   0.000E+00           T           F   0.000E+00   0.000E+00   6.000E-01   0.000E+00   1.000E+00   1.000E+00   1.000E+00   0.000E+00   0.000E+00   0.000E+00      2     2   220
   222          -1           0           2      0.0000      0.0000    -11.0000      0.1250   4.519E+00  -1.812E-01   1.000E-04   0.000E+00   0.000E+00           T           F   0.000E+00   0.000E+00   6.000E-01   0.000E+00   1.000E+00   1.000E+00   1.000E+00   0.000E+00   0.000E+00   0.000E+00      2   220   221
   223          -1           0           2      0.0000      0.0000    -10.5000      0.1875   4.428E+00  -1.813E-01   1.000E-04   0.000E+00   0.000E+00           T           F   0.000E+00   0.000E+00   6.000E-01   0.000E+00   1.000E+00   1.000E+00   1.000E+00   0.000E+00   0.000E+00   0.000E+00      2   221   222
   224          -1           0           2      0.0000      0.0000    -10.0000      0.2500   4.338E+00  -1.812E-01   1.000E-04   0.000E+00   0.000E+00           T           F   0.000E+00   0.000E+00   6.000E-01   0.000E+00   1.000E+00   1.000E+00   1.000E+00   0.000E+00   0.000E+00   0.000E+00      2   222   223
   225          -1           0           2      0.0000      0.0000     -9.5000      0.3125   4.247E+00  -1.812E-01   1.000E-04   0.000E+00   0.000E+00           T           F   0.000E+00   0.000E+00   6.000E-01   0.000E+00   1.000E+00   1.000E+00   1.000E+00   0.000E+00   0.000E+00   0.000E+00      2   223   224
   226          -1           0           2      0.0000      0.0000     -9.0000      0.3750   4.156E+00  -1.813E-01   1.000E-04   0.000E+00   0.000E+00           T           F   0.000E+00   0.000E+00   6.000E-01   0.000E+00   1.000E+00   1.000E+00   1.000E+00   0.000E+00   0.000E+00   0.000E+00      2   224   225
   227          -1           0           2      0.0000      0.0000     -8.5000      0.4375   4.066E+00  -1.813E-01   1.000E-04   0.000E+00   0.000E+00           T           F   0.000E+00   0.000E+00   6.000E-01   0.000E+00   1.000E+00   1.000E+00   1.000E+00   0.000E+00   0.000E+00   0.000E+00      2   225   226
   228          -1           0           2      0.0000      0.0000     -8.0000      0.5000   3.975E+00  -1.812E-01   1.000E-04   0.000E+00   0.000E+00           T           F   0.000E+00   0.000E+00   6.000E-01   0.000E+00   1.000E+00   1.000E+00   1.000E+00   0.000E+00   0.000E+00   0.000E+00      2   226   227
   229          -1           0           2      0.0000      0.0000     -7.5000      0.5625   3.884E+00  -1.813E-01   1.000E-04   0.000E+00   0.000E+00           T           F   0.000E+00   0.000E+00   6.000E-01   0.000E+00   1.000E+00   1.000E+00   1.000E+00   0.000E+00   0.000E+00   0.000E+00      2   227   228
   230          -1           0           2      0.0000      0.0000     -7.0000      0.6250   3.794E+00  -1.813E-01   1.000E-04   0.000E+00   0.000E+00           T           F   0.000E+00   0.000E+00   6.000E-01   0.000E+00   1.000E+00   1.000E+00   1.000E+00   0.000E+00   0.000E+00   0.000E+00      2   228   229
   231          -1           0           2      0.0000      0.0000     -6.5000      0.6875   3.703E+00  -1.813E-01   1.000E-04   0.000E+00   0.000E+00           T           F   0.000E+00   0.000E+00   6.000E-01   0.000E+00   1.000E+00   1.000E+00   1.000E+00   0.000E+00   0.000E+00   0.000E+00      2   229   230
   232          -1           0           2      0.0000      0.0000     -6.0000      0.7500   3.612E+00  -1.812E-01   1.000E-04   0.000E+00   0.000E+00           T           F   0.000E+00   0.000E+00   6.000E-01   0.000E+00   1.000E+00   1.000E+00   1.000E+00   0.000E+00   0.000E+00   0.000E+00      2   230   231
   233          -1           0           2      0.0000      0.0000     -5.5000      0.8125   3.522E+00  -1.813E-01   1.000E-04   0.000E+00   0.000E+00           T           F   0.000E+00   0.000E+00   6.000E-01   0.000E+00   1.000E+00   1.000E+00   1.000E+00   0.000E+00   0.000E+00   0.000E+00      2   231   232
   234          -1           0           2      0.0000      0.0000     -5.0000      0.8750   3.431E+00  -1.813E-01   1.000E-04   0.000E+00   0.000E+00           T           F   0.000E+00   0.000E+00   6.000E-01   0.000E+00   1.000E+00   1.000E+00   1.000E+00   0.000E+00   0.000E+00   0.000E+00      2   232   233
   235          -1           0           2      0.0000      0.0000     -4.5000      0.9375   3.341E+00  -1.812E-01   1.000E-04   0.000E+00   0.000E+00           T           F   0.000E+00   0.000E+00   6.000E-01   0.000E+00   1.000E+00   1.000E+00   1.000E+00   0.000E+00   0.000E+00   0.000E+00      2   233   234
   236          -1           0           3      0.0000      0.0000     -3.5000      0.0357   3.250E+00   0.000E+00   1.000E-04   0.000E+00   0.000E+00           T           F   0.000E+00   0.000E+00   6.000E-01   0.000E+00   1.000E+00   1.000E+00   1.000E+00   0.000E+00   0.000E+00   0.000E+00      2     3   235
   237          -1           0           3      0.0000      0.0000     -3.0000      0.0714   3.250E+00   0.000E+00   1.000E-04   0.000E+00   0.000E+00           T           F   0.000E+00   0.000E+00   6.000E-01   0.000E+00   1.000E+00   1.000E+00   1.000E+00   0.000E+00   0.000E+00   0.000E+00      2   235   236
   238          -1           0           3      0.0000      0.0000     -2.5000      0.1071   3.250E+00   0.000E+00   1.000E-04   0.000E+00   0.000E+00           T           F   0.000E+00   0.000E+00   6.000E-01   0.000E+00   1.000E+00   1.000E+00   1.000E+00   0.000E+00   0.000E+00   0.000E+00      2   236   237
   239          -1           0           3      0.0000      0.0000     -2.0000      0.1429   3.250E+00   0.000E+00   1.000E-04   0.000E+00   0.000E+00           T           F   0.000E+00   0.000E+00   6.000E-01   0.000E+00   1.000E+00   1.000E+00   1.000E+00   0.000E+00   0.000E+00   0.000E+00      2   237   238
   240          -1           0           3      0.0000      0.0000     -1.5000      0.1786   3.250E+00   0.000E+00   1.000E-04   0.000E+00   0.000E+00           T           F   0.000E+00   0.000E+00   6.000E-01   0.000E+00   1.000E+00   1.000E+00   1.000E+00   0.000E+00   0.000E+00   0.000E+00      2   238   239
   241          -1           0           3      0.0000      0.0000     -1.0000      0.2143   3.250E+00   0.000E+00   1.000E-04   0.000E+00   0.000E+00           T           F   0.000E+00   0.000E+00   6.000E-01   0.000E+00   1.000E+00   1.000E+00   1.000E+00   0.000E+00   0.000E+00   0.000E+00      2   239   240
   242          -1           0           3      0.0000      0.0000     -0.5000      0.2500   3.250E+00   0.000E+00   1.000E-04   0.000E+00   0.000E+00           T           F   0.000E+00   0.000E+00   6.000E-01   0.000E+00   1.000E+00   1.000E+00   1.000E+00   0.000E+00   0.000E+00   0.000E+00      2   240   241
[...]
       4752   0.59400E+02       3.38293E+02       0.00000E+00       0.00000E+00       0.00000E+00      -2.60480E+02       0.00000E+00       3.38293E+02       0.00000E+00       2.60587E+02       0.00000E+00       0.00000E+00      -3.69375E-01       0.00000E+00       0.00000E+00       0.00000E+00       5.64907E+02       0.00000E+00       0.00000E+00       5.59787E+02       0.00000E+00       1.65265E-11
       4753   0.59413E+02       3.34813E+02       0.00000E+00       0.00000E+00       0.00000E+00      -2.59236E+02       0.00000E+00       3.34642E+02       0.00000E+00       2.56721E+02       0.00000E+00       0.00000E+00      -3.70005E-01       0.00000E+00       0.00000E+00       0.00000E+00       4.85246E+02       0.00000E+00       0.00000E+00       4.84635E+02       0.00000E+00       1.63475E-11
       4754   0.59425E+02       3.29647E+02       0.00000E+00       0.00000E+00       0.00000E+00      -2.53653E+02       0.00000E+00       3.29653E+02       0.00000E+00       2.53760E+02       0.00000E+00       0.00000E+00      -3.70833E-01       0.00000E+00       0.00000E+00       0.00000E+00       5.63200E+02       0.00000E+00       0.00000E+00       5.52960E+02       0.00000E+00       1.61041E-11
       4755   0.59438E+02       3.23575E+02       0.00000E+00       0.00000E+00       0.00000E+00      -2.50571E+02       0.00000E+00       3.23407E+02       0.00000E+00       2.48095E+02       0.00000E+00       0.00000E+00      -3.71844E-01       0.00000E+00       0.00000E+00       0.00000E+00       4.78860E+02       0.00000E+00       0.00000E+00       4.78302E+02       0.00000E+00       1.57984E-11
       4756   0.59450E+02       3.15860E+02       0.00000E+00       0.00000E+00       0.00000E+00      -2.43200E+02       0.00000E+00       3.15867E+02       0.00000E+00       2.43200E+02       0.00000E+00       0.00000E+00      -3.72917E-01       0.00000E+00       0.00000E+00       0.00000E+00       5.52960E+02       0.00000E+00       0.00000E+00       5.44427E+02       0.00000E+00       1.54305E-11
       4757   0.59463E+02       3.07286E+02       0.00000E+00       0.00000E+00       0.00000E+00      -2.38031E+02       0.00000E+00       3.07118E+02       0.00000E+00       2.35531E+02       0.00000E+00       0.00000E+00      -3.74198E-01       0.00000E+00       0.00000E+00       0.00000E+00       4.69446E+02       0.00000E+00       0.00000E+00       4.68955E+02       0.00000E+00       1.50027E-11
       4758   0.59475E+02       2.97140E+02       0.00000E+00       0.00000E+00       0.00000E+00      -2.28693E+02       0.00000E+00       2.97147E+02       0.00000E+00       2.28800E+02       0.00000E+00       0.00000E+00      -3.75833E-01       0.00000E+00       0.00000E+00       0.00000E+00       5.42720E+02       0.00000E+00       0.00000E+00       5.35893E+02       0.00000E+00       1.45159E-11
       4759   0.59488E+02       2.86201E+02       0.00000E+00       0.00000E+00       0.00000E+00      -2.21784E+02       0.00000E+00       2.86032E+02       0.00000E+00       2.19303E+02       0.00000E+00       0.00000E+00      -3.76991E-01       0.00000E+00       0.00000E+00       0.00000E+00       4.56873E+02       0.00000E+00       0.00000E+00       4.55942E+02       0.00000E+00       1.39729E-11
       4760   0.59500E+02       2.73787E+02       0.00000E+00       0.00000E+00       0.00000E+00      -2.10773E+02       0.00000E+00       2.73793E+02       0.00000E+00       2.10773E+02       0.00000E+00       0.00000E+00      -3.78542E-01       0.00000E+00       0.00000E+00       0.00000E+00       5.25653E+02       0.00000E+00       0.00000E+00       5.20533E+02       0.00000E+00       1.33748E-11
       4761   0.59513E+02       2.60652E+02       0.00000E+00       0.00000E+00       0.00000E+00      -2.02099E+02       0.00000E+00       2.60485E+02       0.00000E+00       1.99641E+02       0.00000E+00       0.00000E+00      -3.80194E-01       0.00000E+00       0.00000E+00       0.00000E+00       4.41873E+02       0.00000E+00       0.00000E+00       4.40795E+02       0.00000E+00       1.27250E-11
       4762   0.59525E+02       2.46147E+02       0.00000E+00       0.00000E+00       0.00000E+00      -1.89440E+02       0.00000E+00       2.46173E+02       0.00000E+00       1.89653E+02       0.00000E+00       0.00000E+00      -3.81875E-01       0.00000E+00       0.00000E+00       0.00000E+00       5.12000E+02       0.00000E+00       0.00000E+00       5.05173E+02       0.00000E+00       1.20250E-11
       4763   0.59538E+02       2.31036E+02       0.00000E+00       0.00000E+00       0.00000E+00      -1.79321E+02       0.00000E+00       2.30867E+02       0.00000E+00       1.76855E+02       0.00000E+00       0.00000E+00      -3.83931E-01       0.00000E+00       0.00000E+00       0.00000E+00       4.24113E+02       0.00000E+00       0.00000E+00       4.23262E+02       0.00000E+00       1.12786E-11
       4764   0.59550E+02       2.14667E+02       0.00000E+00       0.00000E+00       0.00000E+00      -1.65333E+02       0.00000E+00       2.14667E+02       0.00000E+00       1.65333E+02       0.00000E+00       0.00000E+00      -3.85833E-01       0.00000E+00       0.00000E+00       0.00000E+00       4.91520E+02       0.00000E+00       0.00000E+00       4.88107E+02       0.00000E+00       1.04876E-11
       4765   0.59562E+02       1.97811E+02       0.00000E+00       0.00000E+00       0.00000E+00      -1.53738E+02       0.00000E+00       1.97647E+02       0.00000E+00       1.51301E+02       0.00000E+00       0.00000E+00      -3.87945E-01       0.00000E+00       0.00000E+00       0.00000E+00       4.03473E+02       0.00000E+00       0.00000E+00       4.02875E+02       0.00000E+00       9.65617E-12
       4766   0.59575E+02       1.79840E+02       0.00000E+00       0.00000E+00       0.00000E+00      -1.38453E+02       0.00000E+00       1.79840E+02       0.00000E+00       1.38453E+02       0.00000E+00       0.00000E+00      -3.90417E-01       0.00000E+00       0.00000E+00       0.00000E+00       4.71040E+02       0.00000E+00       0.00000E+00       4.64213E+02       0.00000E+00       8.78654E-12
       4767   0.59588E+02       1.61501E+02       0.00000E+00       0.00000E+00       0.00000E+00      -1.25794E+02       0.00000E+00       1.61332E+02       0.00000E+00       1.23366E+02       0.00000E+00       0.00000E+00      -3.92443E-01       0.00000E+00       0.00000E+00       0.00000E+00       3.81500E+02       0.00000E+00       0.00000E+00       3.80689E+02       0.00000E+00       7.88307E-12
       4768   0.59600E+02       1.42200E+02       0.00000E+00       0.00000E+00       0.00000E+00      -1.09440E+02       0.00000E+00       1.42187E+02       0.00000E+00       1.09440E+02       0.00000E+00       0.00000E+00      -3.94792E-01       0.00000E+00       0.00000E+00       0.00000E+00       4.47147E+02       0.00000E+00       0.00000E+00       4.40320E+02       0.00000E+00       6.94833E-12
       4769   0.59613E+02       1.22673E+02       0.00000E+00       0.00000E+00       0.00000E+00      -9.59142E+01       0.00000E+00       1.22507E+02       0.00000E+00       9.34912E+01       0.00000E+00       0.00000E+00      -3.97014E-01       0.00000E+00       0.00000E+00       0.00000E+00       3.57433E+02       0.00000E+00       0.00000E+00       3.57102E+02       0.00000E+00       5.98697E-12
       4770   0.59625E+02       1.02320E+02       0.00000E+00       0.00000E+00       0.00000E+00      -7.87200E+01       0.00000E+00       1.02320E+02       0.00000E+00       7.89333E+01       0.00000E+00       0.00000E+00      -3.99792E-01       0.00000E+00       0.00000E+00       0.00000E+00       4.23253E+02       0.00000E+00       0.00000E+00       4.16427E+02       0.00000E+00       5.00171E-12
       4771   0.59638E+02       8.19292E+01       0.00000E+00       0.00000E+00       0.00000E+00      -6.45442E+01       0.00000E+00       8.17649E+01       0.00000E+00       6.21495E+01       0.00000E+00       0.00000E+00      -4.01841E-01       0.00000E+00       0.00000E+00       0.00000E+00       3.32406E+02       0.00000E+00       0.00000E+00       3.32049E+02       0.00000E+00       3.99745E-12
       4772   0.59650E+02       6.08533E+01       0.00000E+00       0.00000E+00       0.00000E+00      -4.70400E+01       0.00000E+00       6.08667E+01       0.00000E+00       4.69333E+01       0.00000E+00       0.00000E+00      -4.04375E-01       0.00000E+00       0.00000E+00       0.00000E+00       3.99360E+02       0.00000E+00       0.00000E+00       3.92533E+02       0.00000E+00       2.97706E-12
       4773   0.59663E+02       3.99054E+01       0.00000E+00       0.00000E+00       0.00000E+00      -3.22092E+01       0.00000E+00       3.97449E+01       0.00000E+00       2.98195E+01       0.00000E+00       0.00000E+00      -4.06730E-01       0.00000E+00       0.00000E+00       0.00000E+00       3.06593E+02       0.00000E+00       0.00000E+00       3.06502E+02       0.00000E+00       1.94557E-12
       4774   0.59675E+02       1.84267E+01       0.00000E+00       0.00000E+00       0.00000E+00      -1.42933E+01       0.00000E+00       1.84267E+01       0.00000E+00       1.42933E+01       0.00000E+00       0.00000E+00      -4.09583E-01       0.00000E+00       0.00000E+00       0.00000E+00       3.70347E+02       0.00000E+00       0.00000E+00       3.65227E+02       0.00000E+00       9.05954E-13
       4775   0.59688E+02      -2.73750E+00       0.00000E+00       0.00000E+00       0.00000E+00       6.17448E-01       0.00000E+00      -2.89971E+00       0.00000E+00      -2.97714E+00       0.00000E+00       0.00000E+00      -4.11730E-01       0.00000E+00       0.00000E+00       0.00000E+00       2.80686E+02       0.00000E+00       0.00000E+00       2.80382E+02       0.00000E+00      -1.36661E-13
       4776   0.59700E+02      -2.42800E+01       0.00000E+00       0.00000E+00       0.00000E+00       1.87733E+01       0.00000E+00      -2.42533E+01       0.00000E+00      -1.85600E+01       0.00000E+00       0.00000E+00      -4.14583E-01       0.00000E+00       0.00000E+00       0.00000E+00       3.44747E+02       0.00000E+00       0.00000E+00       3.37920E+02       0.00000E+00      -1.17926E-12
       4777   0.59713E+02      -4.53392E+01       0.00000E+00       0.00000E+00       0.00000E+00       3.33741E+01       0.00000E+00      -4.55043E+01       0.00000E+00      -3.57638E+01       0.00000E+00       0.00000E+00      -4.16721E-01       0.00000E+00       0.00000E+00       0.00000E+00       2.54606E+02       0.00000E+00       0.00000E+00       2.54075E+02       0.00000E+00      -2.21673E-12
       4778   0.59725E+02      -6.65733E+01       0.00000E+00       0.00000E+00       0.00000E+00       5.10933E+01       0.00000E+00      -6.65600E+01       0.00000E+00      -5.12000E+01       0.00000E+00       0.00000E+00      -4.19167E-01       0.00000E+00       0.00000E+00       0.00000E+00       3.19147E+02       0.00000E+00       0.00000E+00       3.14027E+02       0.00000E+00      -3.24607E-12
       4779   0.59738E+02      -8.72350E+01       0.00000E+00       0.00000E+00       0.00000E+00       6.56291E+01       0.00000E+00      -8.73943E+01       0.00000E+00      -6.79871E+01       0.00000E+00       0.00000E+00      -4.21647E-01       0.00000E+00       0.00000E+00       0.00000E+00       2.28766E+02       0.00000E+00       0.00000E+00       2.28062E+02       0.00000E+00      -4.26219E-12
       4780   0.59750E+02      -1.07893E+02       0.00000E+00       0.00000E+00       0.00000E+00       8.28800E+01       0.00000E+00      -1.07893E+02       0.00000E+00      -8.29867E+01       0.00000E+00       0.00000E+00      -4.23750E-01       0.00000E+00       0.00000E+00       0.00000E+00       2.93547E+02       0.00000E+00       0.00000E+00       2.90133E+02       0.00000E+00      -5.26219E-12
       4781   0.59763E+02      -1.27767E+02       0.00000E+00       0.00000E+00       0.00000E+00       9.68158E+01       0.00000E+00      -1.27926E+02       0.00000E+00      -9.91888E+01       0.00000E+00       0.00000E+00      -4.26403E-01       0.00000E+00       0.00000E+00       0.00000E+00       2.03720E+02       0.00000E+00       0.00000E+00       2.02849E+02       0.00000E+00      -6.24111E-12
       4782   0.59775E+02      -1.47520E+02       0.00000E+00       0.00000E+00       0.00000E+00       1.13493E+02       0.00000E+00      -1.47507E+02       0.00000E+00      -1.13493E+02       0.00000E+00       0.00000E+00      -4.28958E-01       0.00000E+00       0.00000E+00       0.00000E+00       2.67947E+02       0.00000E+00       0.00000E+00       2.62827E+02       0.00000E+00      -7.19619E-12
       4783   0.59788E+02      -1.66304E+02       0.00000E+00       0.00000E+00       0.00000E+00       1.26462E+02       0.00000E+00      -1.66467E+02       0.00000E+00      -1.28850E+02       0.00000E+00       0.00000E+00      -4.30946E-01       0.00000E+00       0.00000E+00       0.00000E+00       1.79646E+02       0.00000E+00       0.00000E+00       1.78755E+02       0.00000E+00      -8.12262E-12
       4784   0.59800E+02      -1.84800E+02       0.00000E+00       0.00000E+00       0.00000E+00       1.42080E+02       0.00000E+00      -1.84787E+02       0.00000E+00      -1.42080E+02       0.00000E+00       0.00000E+00      -4.32917E-01       0.00000E+00       0.00000E+00       0.00000E+00       2.45760E+02       0.00000E+00       0.00000E+00       2.38933E+02       0.00000E+00      -9.01785E-12
       4785   0.59812E+02      -2.02245E+02       0.00000E+00       0.00000E+00       0.00000E+00       1.54123E+02       0.00000E+00      -2.02404E+02       0.00000E+00      -1.56486E+02       0.00000E+00       0.00000E+00      -4.35121E-01       0.00000E+00       0.00000E+00       0.00000E+00       1.57000E+02       0.00000E+00       0.00000E+00       1.56795E+02       0.00000E+00      -9.87734E-12
       4786   0.59825E+02      -2.19253E+02       0.00000E+00       0.00000E+00       0.00000E+00       1.68747E+02       0.00000E+00      -2.19240E+02       0.00000E+00      -1.68533E+02       0.00000E+00       0.00000E+00      -4.37292E-01       0.00000E+00       0.00000E+00       0.00000E+00       2.25280E+02       0.00000E+00       0.00000E+00       2.16747E+02       0.00000E+00      -1.06988E-11
       4787   0.59838E+02      -2.35026E+02       0.00000E+00       0.00000E+00       0.00000E+00       1.79330E+02       0.00000E+00      -2.35185E+02       0.00000E+00      -1.81700E+02       0.00000E+00       0.00000E+00      -4.38867E-01       0.00000E+00       0.00000E+00       0.00000E+00       1.36846E+02       0.00000E+00       0.00000E+00       1.36642E+02       0.00000E+00      -1.14779E-11
       4788   0.59850E+02      -2.50267E+02       0.00000E+00       0.00000E+00       0.00000E+00       1.92427E+02       0.00000E+00      -2.50253E+02       0.00000E+00      -1.92427E+02       0.00000E+00       0.00000E+00      -4.40833E-01       0.00000E+00       0.00000E+00       0.00000E+00       2.04800E+02       0.00000E+00       0.00000E+00       1.99680E+02       0.00000E+00      -1.22127E-11
       4789   0.59863E+02      -2.64140E+02       0.00000E+00       0.00000E+00       0.00000E+00       2.01735E+02       0.00000E+00      -2.64297E+02       0.00000E+00      -2.04084E+02       0.00000E+00       0.00000E+00      -4.42193E-01       0.00000E+00       0.00000E+00       0.00000E+00       1.18570E+02       0.00000E+00       0.00000E+00       1.18432E+02       0.00000E+00      -1.28993E-11
       4790   0.59875E+02      -2.77333E+02       0.00000E+00       0.00000E+00       0.00000E+00       2.13333E+02       0.00000E+00      -2.77347E+02       0.00000E+00      -2.13227E+02       0.00000E+00       0.00000E+00      -4.43958E-01       0.00000E+00       0.00000E+00       0.00000E+00       1.87733E+02       0.00000E+00       0.00000E+00       1.82613E+02       0.00000E+00      -1.35361E-11
       4791   0.59888E+02      -2.89130E+02       0.00000E+00       0.00000E+00       0.00000E+00       2.20967E+02       0.00000E+00      -2.89286E+02       0.00000E+00      -2.23315E+02       0.00000E+00       0.00000E+00      -4.45102E-01       0.00000E+00       0.00000E+00       0.00000E+00       1.02983E+02       0.00000E+00       0.00000E+00       1.02822E+02       0.00000E+00      -1.41195E-11
       4792   0.59900E+02      -3.00133E+02       0.00000E+00       0.00000E+00       0.00000E+00       2.30933E+02       0.00000E+00      -3.00120E+02       0.00000E+00      -2.30933E+02       0.00000E+00       0.00000E+00      -4.45833E-01       0.00000E+00       0.00000E+00       0.00000E+00       1.74080E+02       0.00000E+00       0.00000E+00       1.70667E+02       0.00000E+00      -1.46482E-11
       4793   0.59913E+02      -3.09609E+02       0.00000E+00       0.00000E+00       0.00000E+00       2.36718E+02       0.00000E+00      -3.09764E+02       0.00000E+00      -2.39064E+02       0.00000E+00       0.00000E+00      -4.47459E-01       0.00000E+00       0.00000E+00       0.00000E+00       9.02163E+01       0.00000E+00       0.00000E+00       9.02654E+01       0.00000E+00      -1.51192E-11
       4794   0.59925E+02      -3.18240E+02       0.00000E+00       0.00000E+00       0.00000E+00       2.44907E+02       0.00000E+00      -3.18200E+02       0.00000E+00      -2.44693E+02       0.00000E+00       0.00000E+00      -4.48542E-01       0.00000E+00       0.00000E+00       0.00000E+00       1.62133E+02       0.00000E+00       0.00000E+00       1.58720E+02       0.00000E+00      -1.55317E-11
       4795   0.59938E+02      -3.25255E+02       0.00000E+00       0.00000E+00       0.00000E+00       2.48775E+02       0.00000E+00      -3.25408E+02       0.00000E+00      -2.51079E+02       0.00000E+00       0.00000E+00      -4.49269E-01       0.00000E+00       0.00000E+00       0.00000E+00       8.01363E+01       0.00000E+00       0.00000E+00       8.02038E+01       0.00000E+00      -1.58830E-11
       4796   0.59950E+02      -3.31347E+02       0.00000E+00       0.00000E+00       0.00000E+00       2.54933E+02       0.00000E+00      -3.31347E+02       0.00000E+00      -2.54827E+02       0.00000E+00       0.00000E+00      -4.49583E-01       0.00000E+00       0.00000E+00       0.00000E+00       1.53600E+02       0.00000E+00       0.00000E+00       1.50187E+02       0.00000E+00      -1.61728E-11
       4797   0.59963E+02      -3.35821E+02       0.00000E+00       0.00000E+00       0.00000E+00       2.56901E+02       0.00000E+00      -3.35976E+02       0.00000E+00      -2.59220E+02       0.00000E+00       0.00000E+00      -4.50494E-01       0.00000E+00       0.00000E+00       0.00000E+00       7.37463E+01       0.00000E+00       0.00000E+00       7.36221E+01       0.00000E+00      -1.63989E-11
       4798   0.59975E+02      -3.39333E+02       0.00000E+00       0.00000E+00       0.00000E+00       2.60907E+02       0.00000E+00      -3.39293E+02       0.00000E+00      -2.60907E+02       0.00000E+00       0.00000E+00      -4.50833E-01       0.00000E+00       0.00000E+00       0.00000E+00       1.50187E+02       0.00000E+00       0.00000E+00       1.46773E+02       0.00000E+00      -1.65615E-11
       4799   0.59988E+02      -3.41146E+02       0.00000E+00       0.00000E+00       0.00000E+00       2.60998E+02       0.00000E+00      -3.41301E+02       0.00000E+00      -2.63320E+02       0.00000E+00       0.00000E+00      -4.51077E-01       0.00000E+00       0.00000E+00       0.00000E+00       7.05046E+01       0.00000E+00       0.00000E+00       7.01504E+01       0.00000E+00      -1.66589E-11
       4800   0.60000E+02      -3.41987E+02       0.00000E+00       0.00000E+00       0.00000E+00       2.63040E+02       0.00000E+00      -3.41973E+02       0.00000E+00      -2.63040E+02       0.00000E+00       0.00000E+00      -4.51250E-01       0.00000E+00       0.00000E+00       0.00000E+00       1.48480E+02       0.00000E+00       0.00000E+00       1.43360E+02       0.00000E+00      -1.66918E-11

This summary file was closed on 03-Nov-2016 at 13:55:42.

