
This summary file was generated by TurbSim (v1.06.00, 21-Sep-2012) on 07-Jan-2014 at 12:50:45.


Runtime Options:

     13428  Random seed #1
    RANLUX  Type of random number generator
         F  Output binary HH turbulence parameters?
         F  Output formatted turbulence parameters?
         F  Output AeroDyn HH files?
         T  Output AeroDyn FF files?
         F  Output BLADED FF files?
         T  Output tower data?
         F  Output formatted FF files?
         F  Output coherent turbulence time step file?
         T  Clockwise rotation when looking downwind?
 0 -  NONE  IEC turbulence models scaled to exact specified standard deviation


Turbine/Model Specifications:

        31  Vertical grid-point matrix dimension
        31  Horizontal grid-point matrix dimension
     0.050  Time step [seconds]
   630.000  Analysis time [seconds]
    60.000  Usable output time [seconds]
    90.000  Hub height [m]
   145.000  Grid height [m]
   145.000  Grid width [m]
     0.000  Vertical flow angle [degrees]
     0.000  Horizontal flow angle [degrees]


Meteorological Boundary Conditions:

    IECKAI  IEC Kaimal spectral model
         1  IEC standard: IEC 61400-1 Ed. 3: 2005
         B  IEC turbulence characteristic
       NTM  IEC Normal Turbulence Model
       N/A  IEC Extreme Turbulence Model (ETM) "c" parameter [m/s]
       PL   Wind profile type
    90.000  Reference height [m]
    12.000  Reference wind speed [m/s]
       N/A  Jet height [m]
     0.200  Power law exponent
     0.030  Surface roughness length [m]


You have requested that the following file(s) be generated:

   90m_12mps.bts (AeroDyn/TurbSim full-field wind file)


Turbulence Simulation Scaling Parameter Summary:

   Turbulence model used                            =  IEC Kaimal
   Turbulence characteristic                        =  B
   IEC turbulence type                              =  Normal Turbulence Model
   IEC standard                                     =  IEC 61400-1 Ed. 3: 2005
   Mean wind speed at hub height                    =   12.000 m/s
   Expected value of turbulence intensity at 15 m/s =   14.000%
   Characteristic value of standard deviation       =    2.044 m/s
   Turbulence scale                                 =   42.000 m
   u-component integral scale                       =  340.200 m
   Coherency scale                                  =  340.200 m
   Characteristic value of hub turbulence intensity =   17.033%
   Gradient Richardson number                       =    0.000

   Wind profile type                                =  Power law
   Power law exponent                               =    0.200
   Mean shear across rotor disk                     =    0.033 (m/s)/m
   Assumed rotor diameter                           =  145.000 m
   Surface roughness length                         =    0.030 m

   Number of time steps in the FFT                  =    12600
   Number of time steps output                      =     1442


Mean Flow Angles:

   Vertical   =   0.0 degrees
   Horizontal =   0.0 degrees

Mean Wind Speed Profile:

   Height    Wind Speed   Horizontal Angle  U-comp (X)   V-comp (Y)   W-comp (Z)
     (m)        (m/s)         (degrees)       (m/s)        (m/s)        (m/s)   
   ------    ----------   ----------------  ----------   ----------   ----------
    162.5       13.51            0.00         13.51         0.00         0.00
    157.7       13.42            0.00         13.42         0.00         0.00
    152.8       13.34            0.00         13.34         0.00         0.00
    148.0       13.26            0.00         13.26         0.00         0.00
    143.2       13.17            0.00         13.17         0.00         0.00
    138.3       13.08            0.00         13.08         0.00         0.00
    133.5       12.98            0.00         12.98         0.00         0.00
    128.7       12.89            0.00         12.89         0.00         0.00
    123.8       12.79            0.00         12.79         0.00         0.00
    119.0       12.69            0.00         12.69         0.00         0.00
    114.2       12.58            0.00         12.58         0.00         0.00
    109.3       12.48            0.00         12.48         0.00         0.00
    104.5       12.36            0.00         12.36         0.00         0.00
     99.7       12.25            0.00         12.25         0.00         0.00
     94.8       12.13            0.00         12.13         0.00         0.00
     90.0       12.00            0.00         12.00         0.00         0.00
     85.2       11.87            0.00         11.87         0.00         0.00
     80.3       11.73            0.00         11.73         0.00         0.00
     75.5       11.59            0.00         11.59         0.00         0.00
     70.7       11.43            0.00         11.43         0.00         0.00
     65.8       11.27            0.00         11.27         0.00         0.00
     61.0       11.10            0.00         11.10         0.00         0.00
     56.2       10.92            0.00         10.92         0.00         0.00
     51.3       10.73            0.00         10.73         0.00         0.00
     46.5       10.52            0.00         10.52         0.00         0.00
     41.7       10.29            0.00         10.29         0.00         0.00
     36.8       10.04            0.00         10.04         0.00         0.00
     32.0        9.76            0.00          9.76         0.00         0.00
     27.2        9.44            0.00          9.44         0.00         0.00
     22.3        9.08            0.00          9.08         0.00         0.00
     17.5        8.65            0.00          8.65         0.00         0.00
     12.7        8.11            0.00          8.11         0.00         0.00
      7.8        7.36            0.00          7.36         0.00         0.00
      3.0        6.08            0.00          6.08         0.00         0.00


Harvested Random Seeds after Generation of the Random Numbers:

    169290450 K1
            0 K2


Hub-Height Simulated Turbulence Statistical Summary:

   Type of Wind        Min (m/s)   Mean (m/s)    Max (m/s)  Sigma (m/s)       TI (%)
   ----------------    ---------   ----------    ---------  -----------       ------
   Longitudinal (u)         6.72        12.00        17.23        1.662       13.850
   Lateral (v)             -5.79         0.00         5.35        1.599       13.325
   Vertical (w)            -3.54         0.00         3.40        0.999        8.325
   U component              6.72        12.00        17.23        1.662       13.850
   V component             -5.79         0.00         5.35        1.599       13.325
   W component             -3.54         0.00         3.40        0.999        8.325
   Horizontal (U&V)         6.88        12.11        17.24        1.648       13.611
   Total                    6.92        12.15        17.26        1.647       13.553

                       Min Reynolds     Mean Reynolds    Max Reynolds    Correlation
   Product             Stress (m/s)^2   Stress (m/s)^2   Stress (m/s)^2  Coefficient
   ----------------    --------------   --------------   --------------  -----------
   u'w'                     -9.537             0.142             9.761         0.085
   u'v'                    -14.212             0.414            20.375         0.156
   v'w'                     -8.399             0.232            14.521         0.145


   Friction Velocity (Ustar)  =      0.376 m/s
   Maximum Instantaneous TKE  =     22.827 (m/s)^2
   Maximum Instantaneous CTKE =     10.699 (m/s)^2


Grid Point Variance Summary:

   Y-coord  -72.50  -67.67  -62.83  -58.00  -53.17  -48.33  -43.50  -38.67  -33.83  -29.00  -24.17  -19.33  -14.50   -9.67   -4.83    0.00    4.83    9.67   14.50   19.33   24.17   29.00   33.83   38.67   43.50   48.33   53.17   58.00   62.83   67.67   72.50

   Height   Standard deviation at grid points for the u component:
   162.50    1.814   1.777   1.855   1.764   1.804   1.884   1.837   1.861   1.935   1.912   1.942   1.952   1.898   1.816   1.929   1.912   1.893   1.840   1.805   1.813   1.909   1.879   1.917   2.024   1.948   2.010   1.986   1.992   1.916   2.031   2.151
   157.67    1.843   1.779   1.776   1.770   1.772   1.760   1.850   1.775   1.879   1.830   1.828   1.820   1.859   1.912   1.877   1.898   1.850   1.807   1.815   1.830   1.875   1.839   1.940   1.947   1.992   2.090   2.065   1.914   1.925   2.048   2.154
   152.83    1.836   1.762   1.803   1.768   1.806   1.702   1.779   1.864   1.867   1.780   1.879   1.795   1.803   1.975   1.866   1.816   1.828   1.775   1.747   1.898   1.857   1.950   1.994   2.023   2.025   2.075   2.010   2.086   1.978   2.124   2.226
   148.00    1.900   1.850   1.892   1.885   1.728   1.729   1.744   1.715   1.875   1.921   1.823   1.894   1.961   1.956   1.976   1.910   1.856   1.744   1.825   1.939   1.835   2.018   1.949   1.943   2.006   2.058   2.062   2.042   2.215   2.126   2.185
   143.17    1.786   1.883   1.902   1.763   1.773   1.847   1.764   1.815   1.826   1.882   1.913   1.914   2.009   2.101   1.905   1.927   1.808   1.853   1.848   1.927   1.957   1.965   1.924   1.992   2.044   2.120   1.938   1.965   2.117   2.166   2.052
   138.33    1.785   1.858   1.919   1.746   1.791   1.781   1.875   1.834   1.942   1.972   2.049   2.043   2.034   2.031   1.954   1.957   1.854   1.866   1.898   1.894   1.839   1.943   1.978   1.916   1.937   2.029   1.916   1.923   2.004   2.011   2.019
   133.50    1.755   1.836   1.846   1.747   1.769   1.917   1.828   1.866   1.917   2.055   2.024   2.120   1.939   1.946   1.918   1.872   1.819   1.907   1.831   1.735   1.742   1.816   1.925   1.977   1.956   2.056   1.946   1.957   1.955   1.892   1.847
   128.67    1.820   1.816   1.769   1.714   1.733   1.810   1.908   1.886   1.969   1.978   2.024   2.048   1.953   1.998   1.943   1.856   1.827   1.851   1.812   1.722   1.788   1.809   1.892   1.936   2.043   2.020   1.921   1.890   1.929   1.848   1.862
   123.83    1.752   1.635   1.785   1.711   1.808   1.836   1.893   2.000   1.914   1.955   2.052   2.063   1.965   1.926   1.906   1.821   1.839   1.857   1.839   1.785   1.781   1.768   1.771   1.885   1.982   1.987   1.962   1.884   1.791   1.811   1.830
   119.00    1.646   1.696   1.770   1.740   1.762   1.774   1.846   1.952   1.904   1.947   1.968   2.008   1.899   1.923   1.835   1.918   1.798   1.779   1.729   1.799   1.709   1.731   1.647   1.783   1.896   1.954   1.905   1.910   1.903   1.867   1.834
   114.17    1.821   1.767   1.766   1.752   1.717   1.749   1.806   1.869   1.964   1.901   1.915   1.837   1.879   1.871   1.885   1.770   1.739   1.734   1.648   1.681   1.756   1.801   1.786   1.733   1.826   1.733   1.853   1.956   1.900   1.836   1.788
   109.33    1.930   1.849   1.786   1.743   1.650   1.694   1.798   1.898   1.875   1.820   1.775   1.688   1.710   1.768   1.688   1.764   1.740   1.736   1.761   1.710   1.620   1.712   1.667   1.700   1.701   1.791   1.805   1.918   1.887   1.830   1.773
   104.50    1.946   2.001   1.968   1.805   1.788   1.750   1.843   1.945   1.949   1.919   1.785   1.763   1.592   1.685   1.656   1.635   1.660   1.759   1.707   1.691   1.705   1.742   1.703   1.715   1.778   1.662   1.779   1.821   1.882   1.907   1.825
    99.67    1.981   1.981   1.840   1.832   1.812   1.830   1.844   1.852   1.871   1.924   1.831   1.756   1.787   1.726   1.740   1.670   1.680   1.657   1.657   1.664   1.726   1.673   1.768   1.765   1.752   1.681   1.765   1.689   1.791   1.703   1.674
    94.83    1.911   1.970   1.760   1.781   1.851   1.899   1.850   1.757   1.793   1.796   1.815   1.782   1.793   1.752   1.716   1.654   1.613   1.607   1.726   1.746   1.811   1.743   1.778   1.864   1.726   1.644   1.707   1.697   1.700   1.654   1.629
    90.00    2.021   1.951   1.886   1.971   2.060   1.908   1.870   1.861   1.789   1.821   1.816   1.897   1.890   1.803   1.697   1.662   1.685   1.732   1.776   1.734   1.795   1.847   1.787   1.854   1.766   1.683   1.641   1.608   1.636   1.578   1.630
    85.17    1.950   2.040   2.037   2.004   2.095   1.993   1.967   1.819   1.853   1.900   1.871   1.954   1.978   1.877   1.736   1.722   1.678   1.779   1.804   1.876   1.833   1.842   1.831   1.797   1.885   1.636   1.587   1.565   1.585   1.645   1.662
    80.33    1.890   1.982   1.939   1.978   2.047   1.972   1.940   1.958   1.822   1.865   1.877   1.860   1.973   1.915   1.889   1.747   1.767   1.850   1.790   1.884   1.837   1.899   1.831   1.770   1.730   1.666   1.552   1.541   1.626   1.683   1.695
    75.50    2.000   2.027   1.946   1.932   2.023   1.964   1.891   1.879   1.721   1.853   1.902   1.959   2.016   1.950   1.987   1.948   1.797   1.860   1.817   1.864   1.808   1.858   1.813   1.776   1.761   1.772   1.664   1.583   1.592   1.709   1.715
    70.67    2.096   2.103   2.068   2.068   2.086   2.024   1.920   1.882   1.695   1.771   1.927   2.032   2.008   1.970   1.959   1.927   1.896   1.924   1.865   1.867   1.885   1.909   1.890   1.809   1.834   1.859   1.771   1.724   1.605   1.700   1.670
    65.83    2.139   2.066   2.080   2.066   2.125   2.006   1.995   1.821   1.790   1.894   1.936   1.986   2.004   1.980   1.905   1.959   1.882   1.827   1.983   1.912   1.971   1.989   1.868   1.878   1.869   1.868   1.657   1.656   1.622   1.685   1.665
    61.00    2.117   2.135   2.046   2.013   2.030   2.087   1.937   1.924   1.870   1.884   1.814   1.948   1.973   1.968   1.955   1.930   1.955   1.899   1.960   1.948   1.924   1.935   1.763   1.796   1.807   1.699   1.731   1.714   1.680   1.624   1.588
    56.17    2.044   2.155   2.115   2.124   2.008   2.046   2.002   1.899   1.908   1.931   1.807   1.884   1.935   1.966   1.961   1.913   1.946   1.977   1.995   1.924   1.870   1.823   1.831   1.724   1.763   1.815   1.793   1.717   1.664   1.666   1.671
    51.33    1.964   2.096   2.110   2.070   2.016   2.013   2.017   2.031   1.965   1.950   1.816   1.965   1.993   1.935   1.959   1.846   1.972   1.895   1.885   1.877   1.928   1.776   1.837   1.818   1.814   1.876   1.844   1.693   1.792   1.728   1.708
    46.50    2.009   2.035   2.060   2.131   2.038   1.965   2.022   1.995   1.984   2.012   1.920   1.969   2.041   2.013   1.927   1.898   1.866   1.863   1.823   1.815   1.767   1.854   1.833   1.827   1.795   1.865   1.813   1.740   1.795   1.735   1.706
    41.67    1.935   1.996   2.138   2.135   2.162   2.038   1.991   1.908   2.010   1.967   2.000   2.029   2.081   2.052   1.943   1.877   1.772   1.810   1.826   1.766   1.863   1.821   1.772   1.827   1.738   1.807   1.748   1.765   1.779   1.776   1.678
    36.83    1.804   2.040   2.072   2.095   2.011   2.024   1.981   1.933   1.961   1.986   1.915   1.997   2.012   1.980   1.963   1.864   1.818   1.827   1.799   1.754   1.879   1.878   1.886   1.765   1.863   1.715   1.747   1.712   1.680   1.765   1.720
    32.00    1.936   1.922   2.047   2.018   2.045   2.110   1.954   1.889   1.946   1.925   1.876   2.003   1.969   1.992   1.980   1.952   1.846   1.821   1.817   1.755   1.742   1.821   1.838   1.775   1.771   1.692   1.713   1.695   1.641   1.669   1.754
    27.17    1.910   1.969   2.076   2.048   2.102   2.107   2.008   1.937   1.906   2.028   1.994   1.965   2.029   2.020   1.918   1.884   1.874   1.741   1.696   1.761   1.757   1.808   1.804   1.766   1.714   1.791   1.757   1.773   1.712   1.699   1.648
    22.33    1.930   1.863   1.990   2.026   2.115   2.060   2.048   2.019   1.993   2.063   2.001   1.977   2.107   2.038   1.960   1.873   1.850   1.817   1.779   1.767   1.668   1.709   1.736   1.787   1.730   1.740   1.841   1.748   1.734   1.783   1.784
    17.50    1.949   1.922   1.977   1.988   2.047   1.996   1.977   1.938   1.871   1.948   1.975   2.088   2.094   2.066   2.080   1.957   1.951   1.895   1.832   1.739   1.704   1.702   1.755   1.842   1.836   1.768   1.812   1.708   1.761   1.687   1.859

   Height   Standard deviation at grid points for the v component:
   162.50    1.599   1.599   1.599   1.599   1.599   1.599   1.599   1.599   1.599   1.599   1.599   1.599   1.599   1.599   1.599   1.599   1.599   1.599   1.599   1.599   1.599   1.599   1.599   1.599   1.599   1.599   1.599   1.599   1.599   1.599   1.599
   157.67    1.599   1.599   1.599   1.599   1.599   1.599   1.599   1.599   1.599   1.599   1.599   1.599   1.599   1.599   1.599   1.599   1.599   1.599   1.599   1.599   1.599   1.599   1.599   1.599   1.599   1.599   1.599   1.599   1.599   1.599   1.599
   152.83    1.599   1.599   1.599   1.599   1.599   1.599   1.599   1.599   1.599   1.599   1.599   1.599   1.599   1.599   1.599   1.599   1.599   1.599   1.599   1.599   1.599   1.599   1.599   1.599   1.599   1.599   1.599   1.599   1.599   1.599   1.599
   148.00    1.599   1.599   1.599   1.599   1.599   1.599   1.599   1.599   1.599   1.599   1.599   1.599   1.599   1.599   1.599   1.599   1.599   1.599   1.599   1.599   1.599   1.599   1.599   1.599   1.599   1.599   1.599   1.599   1.599   1.599   1.599
   143.17    1.599   1.599   1.599   1.599   1.599   1.599   1.599   1.599   1.599   1.599   1.599   1.599   1.599   1.599   1.599   1.599   1.599   1.599   1.599   1.599   1.599   1.599   1.599   1.599   1.599   1.599   1.599   1.599   1.599   1.599   1.599
   138.33    1.599   1.599   1.599   1.599   1.599   1.599   1.599   1.599   1.599   1.599   1.599   1.599   1.599   1.599   1.599   1.599   1.599   1.599   1.599   1.599   1.599   1.599   1.599   1.599   1.599   1.599   1.599   1.599   1.599   1.599   1.599
   133.50    1.599   1.599   1.599   1.599   1.599   1.599   1.599   1.599   1.599   1.599   1.599   1.599   1.599   1.599   1.599   1.599   1.599   1.599   1.599   1.599   1.599   1.599   1.599   1.599   1.599   1.599   1.599   1.599   1.599   1.599   1.599
   128.67    1.599   1.599   1.599   1.599   1.599   1.599   1.599   1.599   1.599   1.599   1.599   1.599   1.599   1.599   1.599   1.599   1.599   1.599   1.599   1.599   1.599   1.599   1.599   1.599   1.599   1.599   1.599   1.599   1.599   1.599   1.599
   123.83    1.599   1.599   1.599   1.599   1.599   1.599   1.599   1.599   1.599   1.599   1.599   1.599   1.599   1.599   1.599   1.599   1.599   1.599   1.599   1.599   1.599   1.599   1.599   1.599   1.599   1.599   1.599   1.599   1.599   1.599   1.599
   119.00    1.599   1.599   1.599   1.599   1.599   1.599   1.599   1.599   1.599   1.599   1.599   1.599   1.599   1.599   1.599   1.599   1.599   1.599   1.599   1.599   1.599   1.599   1.599   1.599   1.599   1.599   1.599   1.599   1.599   1.599   1.599
   114.17    1.599   1.599   1.599   1.599   1.599   1.599   1.599   1.599   1.599   1.599   1.599   1.599   1.599   1.599   1.599   1.599   1.599   1.599   1.599   1.599   1.599   1.599   1.599   1.599   1.599   1.599   1.599   1.599   1.599   1.599   1.599
   109.33    1.599   1.599   1.599   1.599   1.599   1.599   1.599   1.599   1.599   1.599   1.599   1.599   1.599   1.599   1.599   1.599   1.599   1.599   1.599   1.599   1.599   1.599   1.599   1.599   1.599   1.599   1.599   1.599   1.599   1.599   1.599
   104.50    1.599   1.599   1.599   1.599   1.599   1.599   1.599   1.599   1.599   1.599   1.599   1.599   1.599   1.599   1.599   1.599   1.599   1.599   1.599   1.599   1.599   1.599   1.599   1.599   1.599   1.599   1.599   1.599   1.599   1.599   1.599
    99.67    1.599   1.599   1.599   1.599   1.599   1.599   1.599   1.599   1.599   1.599   1.599   1.599   1.599   1.599   1.599   1.599   1.599   1.599   1.599   1.599   1.599   1.599   1.599   1.599   1.599   1.599   1.599   1.599   1.599   1.599   1.599
    94.83    1.599   1.599   1.599   1.599   1.599   1.599   1.599   1.599   1.599   1.599   1.599   1.599   1.599   1.599   1.599   1.599   1.599   1.599   1.599   1.599   1.599   1.599   1.599   1.599   1.599   1.599   1.599   1.599   1.599   1.599   1.599
    90.00    1.599   1.599   1.599   1.599   1.599   1.599   1.599   1.599   1.599   1.599   1.599   1.599   1.599   1.599   1.599   1.599   1.599   1.599   1.599   1.599   1.599   1.599   1.599   1.599   1.599   1.599   1.599   1.599   1.599   1.599   1.599
    85.17    1.599   1.599   1.599   1.599   1.599   1.599   1.599   1.599   1.599   1.599   1.599   1.599   1.599   1.599   1.599   1.599   1.599   1.599   1.599   1.599   1.599   1.599   1.599   1.599   1.599   1.599   1.599   1.599   1.599   1.599   1.599
    80.33    1.599   1.599   1.599   1.599   1.599   1.599   1.599   1.599   1.599   1.599   1.599   1.599   1.599   1.599   1.599   1.599   1.599   1.599   1.599   1.599   1.599   1.599   1.599   1.599   1.599   1.599   1.599   1.599   1.599   1.599   1.599
    75.50    1.599   1.599   1.599   1.599   1.599   1.599   1.599   1.599   1.599   1.599   1.599   1.599   1.599   1.599   1.599   1.599   1.599   1.599   1.599   1.599   1.599   1.599   1.599   1.599   1.599   1.599   1.599   1.599   1.599   1.599   1.599
    70.67    1.599   1.599   1.599   1.599   1.599   1.599   1.599   1.599   1.599   1.599   1.599   1.599   1.599   1.599   1.599   1.599   1.599   1.599   1.599   1.599   1.599   1.599   1.599   1.599   1.599   1.599   1.599   1.599   1.599   1.599   1.599
    65.83    1.599   1.599   1.599   1.599   1.599   1.599   1.599   1.599   1.599   1.599   1.599   1.599   1.599   1.599   1.599   1.599   1.599   1.599   1.599   1.599   1.599   1.599   1.599   1.599   1.599   1.599   1.599   1.599   1.599   1.599   1.599
    61.00    1.599   1.599   1.599   1.599   1.599   1.599   1.599   1.599   1.599   1.599   1.599   1.599   1.599   1.599   1.599   1.599   1.599   1.599   1.599   1.599   1.599   1.599   1.599   1.599   1.599   1.599   1.599   1.599   1.599   1.599   1.599
    56.17    1.599   1.599   1.599   1.599   1.599   1.599   1.599   1.599   1.599   1.599   1.599   1.599   1.599   1.599   1.599   1.599   1.599   1.599   1.599   1.599   1.599   1.599   1.599   1.599   1.599   1.599   1.599   1.599   1.599   1.599   1.599
    51.33    1.599   1.599   1.599   1.599   1.599   1.599   1.599   1.599   1.599   1.599   1.599   1.599   1.599   1.599   1.599   1.599   1.599   1.599   1.599   1.599   1.599   1.599   1.599   1.599   1.599   1.599   1.599   1.599   1.599   1.599   1.599
    46.50    1.599   1.599   1.599   1.599   1.599   1.599   1.599   1.599   1.599   1.599   1.599   1.599   1.599   1.599   1.599   1.599   1.599   1.599   1.599   1.599   1.599   1.599   1.599   1.599   1.599   1.599   1.599   1.599   1.599   1.599   1.599
    41.67    1.599   1.599   1.599   1.599   1.599   1.599   1.599   1.599   1.599   1.599   1.599   1.599   1.599   1.599   1.599   1.599   1.599   1.599   1.599   1.599   1.599   1.599   1.599   1.599   1.599   1.599   1.599   1.599   1.599   1.599   1.599
    36.83    1.599   1.599   1.599   1.599   1.599   1.599   1.599   1.599   1.599   1.599   1.599   1.599   1.599   1.599   1.599   1.599   1.599   1.599   1.599   1.599   1.599   1.599   1.599   1.599   1.599   1.599   1.599   1.599   1.599   1.599   1.599
    32.00    1.599   1.599   1.599   1.599   1.599   1.599   1.599   1.599   1.599   1.599   1.599   1.599   1.599   1.599   1.599   1.599   1.599   1.599   1.599   1.599   1.599   1.599   1.599   1.599   1.599   1.599   1.599   1.599   1.599   1.599   1.599
    27.17    1.599   1.599   1.599   1.599   1.599   1.599   1.599   1.599   1.599   1.599   1.599   1.599   1.599   1.599   1.599   1.599   1.599   1.599   1.599   1.599   1.599   1.599   1.599   1.599   1.599   1.599   1.599   1.599   1.599   1.599   1.599
    22.33    1.599   1.599   1.599   1.599   1.599   1.599   1.599   1.599   1.599   1.599   1.599   1.599   1.599   1.599   1.599   1.599   1.599   1.599   1.599   1.599   1.599   1.599   1.599   1.599   1.599   1.599   1.599   1.599   1.599   1.599   1.599
    17.50    1.599   1.599   1.599   1.599   1.599   1.599   1.599   1.599   1.599   1.599   1.599   1.599   1.599   1.599   1.599   1.599   1.599   1.599   1.599   1.599   1.599   1.599   1.599   1.599   1.599   1.599   1.599   1.599   1.599   1.599   1.599

   Height   Standard deviation at grid points for the w component:
   162.50    0.999   0.999   0.999   0.999   0.999   0.999   0.999   0.999   0.999   0.999   0.999   0.999   0.999   0.999   0.999   0.999   0.999   0.999   0.999   0.999   0.999   0.999   0.999   0.999   0.999   0.999   0.999   0.999   0.999   0.999   0.999
   157.67    0.999   0.999   0.999   0.999   0.999   0.999   0.999   0.999   0.999   0.999   0.999   0.999   0.999   0.999   0.999   0.999   0.999   0.999   0.999   0.999   0.999   0.999   0.999   0.999   0.999   0.999   0.999   0.999   0.999   0.999   0.999
   152.83    0.999   0.999   0.999   0.999   0.999   0.999   0.999   0.999   0.999   0.999   0.999   0.999   0.999   0.999   0.999   0.999   0.999   0.999   0.999   0.999   0.999   0.999   0.999   0.999   0.999   0.999   0.999   0.999   0.999   0.999   0.999
   148.00    0.999   0.999   0.999   0.999   0.999   0.999   0.999   0.999   0.999   0.999   0.999   0.999   0.999   0.999   0.999   0.999   0.999   0.999   0.999   0.999   0.999   0.999   0.999   0.999   0.999   0.999   0.999   0.999   0.999   0.999   0.999
   143.17    0.999   0.999   0.999   0.999   0.999   0.999   0.999   0.999   0.999   0.999   0.999   0.999   0.999   0.999   0.999   0.999   0.999   0.999   0.999   0.999   0.999   0.999   0.999   0.999   0.999   0.999   0.999   0.999   0.999   0.999   0.999
   138.33    0.999   0.999   0.999   0.999   0.999   0.999   0.999   0.999   0.999   0.999   0.999   0.999   0.999   0.999   0.999   0.999   0.999   0.999   0.999   0.999   0.999   0.999   0.999   0.999   0.999   0.999   0.999   0.999   0.999   0.999   0.999
   133.50    0.999   0.999   0.999   0.999   0.999   0.999   0.999   0.999   0.999   0.999   0.999   0.999   0.999   0.999   0.999   0.999   0.999   0.999   0.999   0.999   0.999   0.999   0.999   0.999   0.999   0.999   0.999   0.999   0.999   0.999   0.999
   128.67    0.999   0.999   0.999   0.999   0.999   0.999   0.999   0.999   0.999   0.999   0.999   0.999   0.999   0.999   0.999   0.999   0.999   0.999   0.999   0.999   0.999   0.999   0.999   0.999   0.999   0.999   0.999   0.999   0.999   0.999   0.999
   123.83    0.999   0.999   0.999   0.999   0.999   0.999   0.999   0.999   0.999   0.999   0.999   0.999   0.999   0.999   0.999   0.999   0.999   0.999   0.999   0.999   0.999   0.999   0.999   0.999   0.999   0.999   0.999   0.999   0.999   0.999   0.999
   119.00    0.999   0.999   0.999   0.999   0.999   0.999   0.999   0.999   0.999   0.999   0.999   0.999   0.999   0.999   0.999   0.999   0.999   0.999   0.999   0.999   0.999   0.999   0.999   0.999   0.999   0.999   0.999   0.999   0.999   0.999   0.999
   114.17    0.999   0.999   0.999   0.999   0.999   0.999   0.999   0.999   0.999   0.999   0.999   0.999   0.999   0.999   0.999   0.999   0.999   0.999   0.999   0.999   0.999   0.999   0.999   0.999   0.999   0.999   0.999   0.999   0.999   0.999   0.999
   109.33    0.999   0.999   0.999   0.999   0.999   0.999   0.999   0.999   0.999   0.999   0.999   0.999   0.999   0.999   0.999   0.999   0.999   0.999   0.999   0.999   0.999   0.999   0.999   0.999   0.999   0.999   0.999   0.999   0.999   0.999   0.999
   104.50    0.999   0.999   0.999   0.999   0.999   0.999   0.999   0.999   0.999   0.999   0.999   0.999   0.999   0.999   0.999   0.999   0.999   0.999   0.999   0.999   0.999   0.999   0.999   0.999   0.999   0.999   0.999   0.999   0.999   0.999   0.999
    99.67    0.999   0.999   0.999   0.999   0.999   0.999   0.999   0.999   0.999   0.999   0.999   0.999   0.999   0.999   0.999   0.999   0.999   0.999   0.999   0.999   0.999   0.999   0.999   0.999   0.999   0.999   0.999   0.999   0.999   0.999   0.999
    94.83    0.999   0.999   0.999   0.999   0.999   0.999   0.999   0.999   0.999   0.999   0.999   0.999   0.999   0.999   0.999   0.999   0.999   0.999   0.999   0.999   0.999   0.999   0.999   0.999   0.999   0.999   0.999   0.999   0.999   0.999   0.999
    90.00    0.999   0.999   0.999   0.999   0.999   0.999   0.999   0.999   0.999   0.999   0.999   0.999   0.999   0.999   0.999   0.999   0.999   0.999   0.999   0.999   0.999   0.999   0.999   0.999   0.999   0.999   0.999   0.999   0.999   0.999   0.999
    85.17    0.999   0.999   0.999   0.999   0.999   0.999   0.999   0.999   0.999   0.999   0.999   0.999   0.999   0.999   0.999   0.999   0.999   0.999   0.999   0.999   0.999   0.999   0.999   0.999   0.999   0.999   0.999   0.999   0.999   0.999   0.999
    80.33    0.999   0.999   0.999   0.999   0.999   0.999   0.999   0.999   0.999   0.999   0.999   0.999   0.999   0.999   0.999   0.999   0.999   0.999   0.999   0.999   0.999   0.999   0.999   0.999   0.999   0.999   0.999   0.999   0.999   0.999   0.999
    75.50    0.999   0.999   0.999   0.999   0.999   0.999   0.999   0.999   0.999   0.999   0.999   0.999   0.999   0.999   0.999   0.999   0.999   0.999   0.999   0.999   0.999   0.999   0.999   0.999   0.999   0.999   0.999   0.999   0.999   0.999   0.999
    70.67    0.999   0.999   0.999   0.999   0.999   0.999   0.999   0.999   0.999   0.999   0.999   0.999   0.999   0.999   0.999   0.999   0.999   0.999   0.999   0.999   0.999   0.999   0.999   0.999   0.999   0.999   0.999   0.999   0.999   0.999   0.999
    65.83    0.999   0.999   0.999   0.999   0.999   0.999   0.999   0.999   0.999   0.999   0.999   0.999   0.999   0.999   0.999   0.999   0.999   0.999   0.999   0.999   0.999   0.999   0.999   0.999   0.999   0.999   0.999   0.999   0.999   0.999   0.999
    61.00    0.999   0.999   0.999   0.999   0.999   0.999   0.999   0.999   0.999   0.999   0.999   0.999   0.999   0.999   0.999   0.999   0.999   0.999   0.999   0.999   0.999   0.999   0.999   0.999   0.999   0.999   0.999   0.999   0.999   0.999   0.999
    56.17    0.999   0.999   0.999   0.999   0.999   0.999   0.999   0.999   0.999   0.999   0.999   0.999   0.999   0.999   0.999   0.999   0.999   0.999   0.999   0.999   0.999   0.999   0.999   0.999   0.999   0.999   0.999   0.999   0.999   0.999   0.999
    51.33    0.999   0.999   0.999   0.999   0.999   0.999   0.999   0.999   0.999   0.999   0.999   0.999   0.999   0.999   0.999   0.999   0.999   0.999   0.999   0.999   0.999   0.999   0.999   0.999   0.999   0.999   0.999   0.999   0.999   0.999   0.999
    46.50    0.999   0.999   0.999   0.999   0.999   0.999   0.999   0.999   0.999   0.999   0.999   0.999   0.999   0.999   0.999   0.999   0.999   0.999   0.999   0.999   0.999   0.999   0.999   0.999   0.999   0.999   0.999   0.999   0.999   0.999   0.999
    41.67    0.999   0.999   0.999   0.999   0.999   0.999   0.999   0.999   0.999   0.999   0.999   0.999   0.999   0.999   0.999   0.999   0.999   0.999   0.999   0.999   0.999   0.999   0.999   0.999   0.999   0.999   0.999   0.999   0.999   0.999   0.999
    36.83    0.999   0.999   0.999   0.999   0.999   0.999   0.999   0.999   0.999   0.999   0.999   0.999   0.999   0.999   0.999   0.999   0.999   0.999   0.999   0.999   0.999   0.999   0.999   0.999   0.999   0.999   0.999   0.999   0.999   0.999   0.999
    32.00    0.999   0.999   0.999   0.999   0.999   0.999   0.999   0.999   0.999   0.999   0.999   0.999   0.999   0.999   0.999   0.999   0.999   0.999   0.999   0.999   0.999   0.999   0.999   0.999   0.999   0.999   0.999   0.999   0.999   0.999   0.999
    27.17    0.999   0.999   0.999   0.999   0.999   0.999   0.999   0.999   0.999   0.999   0.999   0.999   0.999   0.999   0.999   0.999   0.999   0.999   0.999   0.999   0.999   0.999   0.999   0.999   0.999   0.999   0.999   0.999   0.999   0.999   0.999
    22.33    0.999   0.999   0.999   0.999   0.999   0.999   0.999   0.999   0.999   0.999   0.999   0.999   0.999   0.999   0.999   0.999   0.999   0.999   0.999   0.999   0.999   0.999   0.999   0.999   0.999   0.999   0.999   0.999   0.999   0.999   0.999
    17.50    0.999   0.999   0.999   0.999   0.999   0.999   0.999   0.999   0.999   0.999   0.999   0.999   0.999   0.999   0.999   0.999   0.999   0.999   0.999   0.999   0.999   0.999   0.999   0.999   0.999   0.999   0.999   0.999   0.999   0.999   0.999

   Mean standard deviation across all grid points:
      u component:    1.866 m/s
      v component:    1.599 m/s
      w component:    0.999 m/s


U-component (X) statistics from the hub grid point:

   Mean =  12.0000 m/s
   TI   =  13.8500 %

Nyquist frequency of turbulent wind field =        10.000 Hz


Processing complete.  220.15 CPU seconds used.
