
This file of echoed input was generated by OpenFAST on 17-Jun-2024 at 11:14:12.

Data from OpenFAST primary input file "OFZMQ_test01.fst":


               FTitle         - File Header: File Description (line 2)
  "FAST          Certification - Test #18: NREL 5.0 MW Baseline Wind Turbine (Onshore)"

            T  Echo           - Echo input data to <RootName>.ech (flag)
               AbortLevel     - Error level when simulation should abort (string)
  "FATAL"
   6.0000E+02  TMax           - Total run time (s)
   5.0000E-03  DT             - Recommended module time step (s)
            2  InterpOrder    - Interpolation order for inputs and outputs {0=nearest neighbor ,1=linear, 2=quadratic} (-)
            0  NumCrctn       - Number of corrections{0=explicit calculation, i.e., no corrections} (-)
   9.9999E+04  DT_UJac        - Time between calls to get Jacobians (s)
   1.0000E+06  UJacSclFact    - Scaling factor used in Jacobians (-)

            1  CompElast      - Compute structural dynamics (switch) {1=ElastoDyn; 2=ElastoDyn + BeamDyn for blades}
            1  CompInflow     - inflow wind velocities (switch) {0=still air; 1=InflowWind}
            2  CompAero       - Compute aerodynamic loads (switch) {0=None; 1=AeroDyn}
            1  CompServo      - Compute control and electrical-drive dynamics (switch) {0=None; 1=ServoDyn}
            0  CompHydro      - Compute hydrodynamic loads (switch) {0=None; 1=HydroDyn}
            0  CompSub        - Compute sub-structural dynamics (switch) {0=None; 1=SubDyn}
            0  CompMooring    - Compute mooring system (switch) {0=None; 1=MAP; 2=FEAMooring; 3=MoorDyn; 4=OrcaFlex}
            0  CompIce        - Compute ice loads (switch) {0=None; 1=IceFloe}
            0  MHK            - MHK turbine type (switch) {0=Not an MHK turbine; 1=Fixed MHK turbine; 2=Floating MHK turbine}

   9.8066E+00  Gravity        - Gravitational acceleration (m/s^2)
   1.2250E+00  AirDens        - Air density (kg/m^3)
   1.0250E+03  WtrDens        - Water density (kg/m^3)
   1.4640E-05  KinVisc        - Kinematic viscosity of working fluid (m^2/s)
   3.3500E+02  SpdSound       - Speed of sound in working fluid (m/s)
   1.0350E+05  Patm           - Atmospheric pressure (Pa)
   1.7000E+03  Pvap           - Vapour pressure of working fluid (Pa)
   5.0000E+01  WtrDpth        - Water depth (m)
   0.0000E+00  MSL2SWL        - Offset between still-water level and mean sea level (m)

               EDFile         - Name of file containing ElastoDyn input parameters (-)
  "NRELOffshrBsline5MW_Onshore_ElastoDyn.dat"
               BDBldFile(1)   - Name of file containing BeamDyn blade 1input parameters (-)
  "NRELOffshrBsline5MW_BeamDyn.dat"
               BDBldFile(2)   - Name of file containing BeamDyn blade 2input parameters (-)
  "NRELOffshrBsline5MW_BeamDyn.dat"
               BDBldFile(3)   - Name of file containing BeamDyn blade 3input parameters (-)
  "NRELOffshrBsline5MW_BeamDyn.dat"
               InflowFile     - Name of file containing inflow wind input parameters (-)
  "NRELOffshrBsline5MW_InflowWind.dat"
               AeroFile       - Name of file containing aerodynamic input parameters (-)
  "NRELOffshrBsline5MW_Onshore_AeroDyn15.dat"
               ServoFile      - Name of file containing control and electrical-drive input parameters (-)
  "NRELOffshrBsline5MW_Onshore_ServoDyn.dat"
               HydroFile      - Name of file containing hydrodynamic input parameters (-)
  "unused"
               SubFile        - Name of file containing sub-structural input parameters (-)
  "unused"
               MooringFile    - Name of file containing mooring system input parameters (-)
  "unused"
               IceFile        - Name of file containing ice input parameters (-)
  "unused"

            T  SumPrint       - Print summary data to <RootName>.sum (flag)
   5.0000E+00  SttsTime       - Amount of time between screen status messages (s)
   9.9999E+04  ChkptTime      - Amount of time between creating checkpoint files for potential restart (s)
               DT_Out         - Time step for tabular output (s)
  "default"
   0.0000E+00  TStart         - Time to begin tabular output (s)
            0  OutFileFmt     - Format for tabular (time-marching) output file(s) {0: uncompressed binary and text file, 1: text file [<RootName>.out], 2: compressed binary file [<RootName>.outb], 3: both text and compressed binary, 4: uncompressed binary <RootName>.outb]; add for combinations) (-)
            T  TabDelim       - Use tab delimiters in text tabular output file? (flag)
               OutFmt         - Format used for text tabular output (except time).  Resulting field should be 10 characters. (-)
  "ES10.3E2"

            F  Linearize      - Linearization analysis (flag)
            F  CalcSteady     - Calculate a steady-state periodic operating point before linearization? (flag)
            3  TrimCase       - Controller parameter to be trimmed {1:yaw; 2:torque; 3:pitch} (-)
   1.0000E-03  TrimTol        - Tolerance for the rotational speed convergence (-)
   1.0000E-02  TrimGain       - Proportional gain for the rotational speed error (>0) (rad/(rad/s) for yaw or pitch; Nm/(rad/s) for torque)
   0.0000E+00  Twr_Kdmp       - Damping factor for the tower (N/(m/s))
   0.0000E+00  Bld_Kdmp       - Damping factor for the blades (N/(m/s))
            2  NLinTimes      - Number of times to linearize (-) [>=1]

            1  LinInputs      - Include inputs in linearization (switch) {0=none; 1=standard; 2=all module inputs (debug)}
            1  LinOutputs     - Include outputs in linearization (switch) (0=none; 1=from OutList(s); 2=all module outputs (debug))
            F  LinOutJac      - Include full Jacabians in linearization output (for debug) (flag)
            F  LinOutMod      - Write module-level linearization output files in addition to output for full system? (flag)

            0  WrVTK          - Write VTK visualization files (0=none; 1=initialization data only; 2=animation; 3=mode shapes)
            1  VTK_Type       - Type of  VTK visualization data: (1=surfaces; 2=basic meshes (lines/points); 3=all meshes)
            T  VTK_fields     - Write mesh fields to VTK data files? (flag)
   1.5000E+01  VTK_fps        - Frame rate for VTK output(fps)

            T  ZmqOn          - ZMQ communication (flag)
               ZmqInAddress   - REQ-REP localhost address
  "https://127.0.1:5555"
            0  ZmqInNbr       - Number of parameters to be requested 
               ZmqInChannels  - Channels to be requested at communication time
  "
               ZmqInDT        - time step for in communication, FAST will keep it constant in between (sample & hold), default is same DT of simulation
  "default"
               ZmqOutAddress  - PUB-SUB localhost address 
  "tcp://127.0.0.1:5557"
            6  ZmqOutNbr      - Number of channels to be broadcasted
               ZmqOutChannels - Channels to be broadcasterd at communication time
  "Wind1VelX" "Azimuth" "GenTq" "GenPwr" "OoPDefl1" "IPDefl1"
               ZmqOutDT       - time step for out communication, FAST will keep it constant in between (sample & hold), default is same DT of simulation
  "default"
