
This file of echoed input was generated by OpenFAST on 25-Jun-2024 at 11:40:53.

Data from OpenFAST primary input file "OFZMQ_test01.fst":


               FTitle         - File Header: File Description (line 2)
  "FAST          Certification - Test #18: NREL 5.0 MW Baseline Wind Turbine (Onshore)"

            T  Echo           - Echo input data to <RootName>.ech (flag)
               AbortLevel     - Error level when simulation should abort (string)
  "FATAL"
   6.0000E+02  TMax           - Total run time (s)
   5.0000E-03  DT             - Recommended module time step (s)
            2  InterpOrder    - Interpolation order for inputs and outputs {0=nearest neighbor ,1=linear, 2=quadratic} (-)
            0  NumCrctn       - Number of corrections{0=explicit calculation, i.e., no corrections} (-)
   9.9999E+04  DT_UJac        - Time between calls to get Jacobians (s)
   1.0000E+06  UJacSclFact    - Scaling factor used in Jacobians (-)

            1  CompElast      - Compute structural dynamics (switch) {1=ElastoDyn; 2=ElastoDyn + BeamDyn for blades}
            1  CompInflow     - inflow wind velocities (switch) {0=still air; 1=InflowWind}
            2  CompAero       - Compute aerodynamic loads (switch) {0=None; 1=AeroDyn14; 2=AeroDyn; 3=ExtLoads}
            1  CompServo      - Compute control and electrical-drive dynamics (switch) {0=None; 1=ServoDyn}
            0  CompSeaSt      - Compute sea state information (switch) {0=None; 1=SeaState}}
            0  CompHydro      - Compute hydrodynamic loads (switch) {0=None; 1=HydroDyn}
            0  CompSub        - Compute sub-structural dynamics (switch) {0=None; 1=SubDyn}
            0  CompMooring    - Compute mooring system (switch) {0=None; 1=MAP; 2=FEAMooring; 3=MoorDyn; 4=OrcaFlex}
            0  CompIce        - Compute ice loads (switch) {0=None; 1=IceFloe}
