
This summary information was generated by AeroDyn on 21-Jun-2024 at 11:02:50.

======  General Options  ============================================================================
            1  WakeMod        - Type of wake/induction model: Blade-Element/Momentum Theory
            2  AFAeroMod      - Type of blade airfoil aerodynamics model: Beddoes-Leishman unsteady model
            1  TwrPotent      - Type of tower influence on wind based on potential flow around the tower: baseline potential flow
            0  TwrShadow      - Type of tower influence on wind based on downstream tower shadow: none
            T  TwrAero        - Calculate tower aerodynamic loads? Yes
            F  CavitCheck     - Perform cavitation check? No
            F  Buoyancy       - Include buoyancy effects? No
======  Blade-Element/Momentum Theory Options  ======================================================
            2  SkewMod        - Type of skewed-wake correction model: Pitt/Peters
            T  TipLoss        - Use the Prandtl tip-loss model? Yes
            T  HubLoss        - Use the Prandtl hub-loss model? Yes
            T  TanInd         - Include tangential induction in BEMT calculations? Yes
            F  AIDrag         - Include the drag term in the axial-induction calculation? No
            F  TIDrag         - Include the drag term in the tangential-induction calculation? No
   5.0000E-10  IndToler       - Convergence tolerance for BEM induction factors (radians)
======  Beddoes-Leishman Unsteady Airfoil Aerodynamics Options  =====================================
            3  UAMod          - Unsteady Aero Model: Minnema/Pierce variant (changes in Cc and Cm)
            T  FLookup        - Use a lookup for f'? Yes
======  Outputs  ====================================================================================
            3  NBlOuts        - Number of blade nodes selected for output
           19  NumBlNds       - Number of blade nodes in the analysis
               Blade nodes selected for output:  Output node  Analysis node
                                                 -----------  -------------
                                                           1              1
                                                           2              9
                                                           3             19
            0  NTwOuts        - Number of tower nodes selected for output

               Requested Output Channels:
                Col   Parameter            Units               
                ---   ---------------      ---------------     
                  0   Time                 (s)                 
                  1   RtFldFxh             (N)                 
                  2   RtFldFyh             (N)                 
                  3   RtFldFzh             (N)                 
                  4   RtFldMxh             (N-m)               
                  5   RtFldMyh             (N-m)               
                  6   RtFldMzh             (N-m)               
                  7   RtVAvgxh             (m/s)               
                  8   RtFldCp              (-)                 
                  9   RtFldCt              (-)                 
                 10   RtArea               (m^2)               
                 11   RtSpeed              (rpm)               
                 12   RtTSR                (-)                 


               Requested Output Channels at each blade station:
                Col   Parameter            Units               
                ---   ---------------      ---------------     


Buoyancy parameters:

Hub volume (m^3):           0.000
Nacelle volume (m^3):       0.000
Total blade volume (m^3):   0.000
Tower volume (m^3):         0.000
