
This summary information was generated by ElastoDyn (v1.04.00a-bjj, 26-Jul-2016) on 03-Nov-2016 at 13:36:11.


Turbine features:

            Upwind, two-bladed rotor with rigid hub.
            The model has 0 of 22 DOFs active (enabled) at start-up.
 Disabled   Platform horizontal surge translation DOF 
 Disabled   Platform horizontal sway translation DOF 
 Disabled   Platform vertical heave translation DOF 
 Disabled   Platform roll tilt rotation DOF 
 Disabled   Platform pitch tilt rotation DOF 
 Disabled   Platform yaw rotation DOF 
 Disabled   1st tower fore-aft bending mode DOF 
 Disabled   1st tower side-to-side bending mode DOF 
 Disabled   2nd tower fore-aft bending mode DOF 
 Disabled   2nd tower side-to-side bending mode DOF 
 Disabled   Nacelle yaw DOF 
 Disabled   Rotor-furl DOF 
 Disabled   Variable speed generator DOF 
 Disabled   Drivetrain rotational-flexibility DOF 
 Disabled   Tail-furl DOF 
 Disabled   1st flapwise bending-mode DOF of blade 1 
 Disabled   1st edgewise bending-mode DOF of blade 1 
 Disabled   2nd flapwise bending-mode DOF of blade 1 
 Disabled   1st flapwise bending-mode DOF of blade 2 
 Disabled   1st edgewise bending-mode DOF of blade 2 
 Disabled   2nd flapwise bending-mode DOF of blade 2 
 Disabled   Hub teetering DOF 


Time steps:

    Structural            (s)        0.00400000


Some calculated parameters:

    Hub-Height            (m)            12.192
    Flexible Tower Length (m)            11.500
    Flexible Blade Length (m)             4.597


Rotor mass properties:

    Rotor Mass            (kg)          579.599
    Rotor Inertia         (kg-m^2)      780.437
                                        Blade 1      Blade 2
                                        -------      -------
    Mass                  (kg)           61.350       61.350
    Second Mass Moment    (kg-m^2)      288.010      288.010
    First Mass Moment     (kg-m)        105.045      105.045
    Center of Mass        (m)             1.712        1.712


Additional mass properties:

    Tower-top Mass        (kg)         1834.699
    Tower Mass            (kg)         2576.975
    Platform Mass         (kg)            0.000
    Mass Incl. Platform   (kg)         4411.674


Interpolated tower properties:

Node  TwFract   HNodes  DHNodes  TMassDen    FAStiff    SSStiff
 (-)      (-)      (m)      (m)    (kg/m)     (Nm^2)     (Nm^2)
   1    0.024    0.274    0.548   260.467  2.359E+08  2.359E+08
   2    0.071    0.821    0.548   260.467  2.359E+08  2.359E+08
   3    0.119    1.369    0.548   260.467  2.359E+08  2.359E+08
   4    0.167    1.917    0.548   260.467  2.359E+08  2.359E+08
   5    0.214    2.464    0.548   260.467  2.359E+08  2.359E+08
   6    0.262    3.012    0.548   260.467  2.359E+08  2.359E+08
   7    0.310    3.560    0.548   243.481  1.861E+08  1.861E+08
   8    0.357    4.107    0.548   207.107  7.947E+07  7.947E+07
   9    0.405    4.655    0.548   207.107  7.947E+07  7.947E+07
  10    0.452    5.202    0.548   207.107  7.947E+07  7.947E+07
  11    0.500    5.750    0.548   207.107  7.947E+07  7.947E+07
  12    0.548    6.298    0.548   207.107  7.947E+07  7.947E+07
  13    0.595    6.845    0.548   207.107  7.947E+07  7.947E+07
  14    0.643    7.393    0.548   207.107  7.947E+07  7.947E+07
  15    0.690    7.940    0.548   207.107  7.947E+07  7.947E+07
  16    0.738    8.488    0.548   207.107  7.947E+07  7.947E+07
  17    0.786    9.036    0.548   207.107  7.947E+07  7.947E+07
  18    0.833    9.583    0.548   207.107  7.947E+07  7.947E+07
  19    0.881   10.131    0.548   207.107  7.947E+07  7.947E+07
  20    0.929   10.679    0.548   207.107  7.947E+07  7.947E+07
  21    0.976   11.226    0.548   207.107  7.947E+07  7.947E+07


Interpolated blade 1 properties:

Node  BlFract   RNodes  DRNodes PitchAxis  StrcTwst  BMassDen    FlpStff    EdgStff
 (-)      (-)      (m)      (m)       (-)     (deg)    (kg/m)     (Nm^2)     (Nm^2)
   1    0.024    0.541    0.219     0.250     0.000    46.515  2.488E+06  9.607E+05
   2    0.071    0.760    0.219     0.250     0.000    23.161  1.452E+06  5.606E+05
   3    0.119    0.979    0.219     0.250     5.207    11.608  6.760E+05  5.142E+05
   4    0.167    1.198    0.219     0.250    16.989    15.307  6.001E+05  1.058E+06
   5    0.214    1.417    0.219     0.250    16.409    15.909  5.344E+05  1.175E+06
   6    0.262    1.636    0.219     0.250    12.155    15.253  4.645E+05  1.114E+06
   7    0.310    1.855    0.219     0.250     9.258    14.894  4.154E+05  1.088E+06
   8    0.357    2.074    0.219     0.250     6.921    14.598  3.750E+05  1.060E+06
   9    0.405    2.293    0.219     0.250     5.066    13.562  3.312E+05  9.521E+05
  10    0.452    2.512    0.219     0.250     3.716    11.858  2.723E+05  7.511E+05
  11    0.500    2.730    0.219     0.250     2.684    11.234  2.308E+05  6.547E+05
  12    0.548    2.949    0.219     0.250     1.834    10.700  1.977E+05  5.694E+05
  13    0.595    3.168    0.219     0.250     1.161    10.286  1.754E+05  4.975E+05
  14    0.643    3.387    0.219     0.250     0.683     9.788  1.484E+05  4.318E+05
  15    0.690    3.606    0.219     0.250     0.278     9.309  1.246E+05  3.719E+05
  16    0.738    3.825    0.219     0.250    -0.079     8.844  1.034E+05  3.171E+05
  17    0.786    4.044    0.219     0.250    -0.413     8.374  8.441E+04  2.667E+05
  18    0.833    4.263    0.219     0.250    -0.733     7.931  6.903E+04  2.252E+05
  19    0.881    4.482    0.219     0.250    -1.049     7.485  5.504E+04  1.862E+05
  20    0.929    4.701    0.219     0.250    -1.356     7.038  4.275E+04  1.514E+05
  21    0.976    4.920    0.219     0.250    -1.661     6.604  3.283E+04  1.221E+05


Interpolated blade 2 properties:

Node  BlFract   RNodes  DRNodes PitchAxis  StrcTwst  BMassDen    FlpStff    EdgStff
 (-)      (-)      (m)      (m)       (-)     (deg)    (kg/m)     (Nm^2)     (Nm^2)
   1    0.024    0.541    0.219     0.250     0.000    46.515  2.488E+06  9.607E+05
   2    0.071    0.760    0.219     0.250     0.000    23.161  1.452E+06  5.606E+05
   3    0.119    0.979    0.219     0.250     5.207    11.608  6.760E+05  5.142E+05
   4    0.167    1.198    0.219     0.250    16.989    15.307  6.001E+05  1.058E+06
   5    0.214    1.417    0.219     0.250    16.409    15.909  5.344E+05  1.175E+06
   6    0.262    1.636    0.219     0.250    12.155    15.253  4.645E+05  1.114E+06
   7    0.310    1.855    0.219     0.250     9.258    14.894  4.154E+05  1.088E+06
   8    0.357    2.074    0.219     0.250     6.921    14.598  3.750E+05  1.060E+06
   9    0.405    2.293    0.219     0.250     5.066    13.562  3.312E+05  9.521E+05
  10    0.452    2.512    0.219     0.250     3.716    11.858  2.723E+05  7.511E+05
  11    0.500    2.730    0.219     0.250     2.684    11.234  2.308E+05  6.547E+05
  12    0.548    2.949    0.219     0.250     1.834    10.700  1.977E+05  5.694E+05
  13    0.595    3.168    0.219     0.250     1.161    10.286  1.754E+05  4.975E+05
  14    0.643    3.387    0.219     0.250     0.683     9.788  1.484E+05  4.318E+05
  15    0.690    3.606    0.219     0.250     0.278     9.309  1.246E+05  3.719E+05
  16    0.738    3.825    0.219     0.250    -0.079     8.844  1.034E+05  3.171E+05
  17    0.786    4.044    0.219     0.250    -0.413     8.374  8.441E+04  2.667E+05
  18    0.833    4.263    0.219     0.250    -0.733     7.931  6.903E+04  2.252E+05
  19    0.881    4.482    0.219     0.250    -1.049     7.485  5.504E+04  1.862E+05
  20    0.929    4.701    0.219     0.250    -1.356     7.038  4.275E+04  1.514E+05
  21    0.976    4.920    0.219     0.250    -1.661     6.604  3.283E+04  1.221E+05


Requested Outputs:


  Col  Parameter  Units
  ---  ---------  -----
   0   Time       (s)       
   1   RootFxc1   (kN)      
   2   RootFyc1   (kN)      
   3   RootFzc1   (kN)      
   4   RootFxc2   (kN)      
   5   RootFyc2   (kN)      
   6   RootFzc2   (kN)      
   7   RootMOoP1  (kN·m)    
   8   RootMIP1   (kN·m)    
   9   RootMzc1   (kN·m)    
  10   RotTorq    (kN·m)    
  11   RotThrust  (kN)      
  12   RotPwr     (kW)      
  13   LSSGagMya  (kN·m)    
  14   LSSGagMza  (kN·m)    
  15   YawBrMxp   (kN·m)    
  16   YawBrMyp   (kN·m)    
