
This summary file was generated by HydroDyn v2.05.01 on 03-Nov-2016 at 13:39:29.




Volume Calculations(m^3)
------------------------
  Structure Volume     :    8.48232E+02
  Submerged Volume     :    5.65487E+02
  Marine Growth Volume :    0.00000E+00
  Ballasted Volume     :    0.00000E+00
              NOTE: Structure, Submerged and Marine Growth volumes are based on members not modelled with WAMIT
                      Ballasted volume is computed from all members which are marked as filled in the HydroDyn input file, regardless of PropPot flag



Buoyancy loads summed about ( 0.0, 0.0, 0.0 )
---------------------------------------------
                                BuoyFxi               BuoyFyi               BuoyFzi               BuoyMxi               BuoyMyi               BuoyMzi 
                                  (N)                   (N)                   (N)                  (N-m)                 (N-m)                 (N-m)  
 External:                  0.000000E+00          0.000000E+00          2.847630E+06          0.000000E+00          0.000000E+00          0.000000E+00
 Internal:                  0.000000E+00          0.000000E+00          0.000000E+00          0.000000E+00          0.000000E+00          0.000000E+00
 Total   :                  0.000000E+00          0.000000E+00          2.847630E+06          0.000000E+00          0.000000E+00          0.000000E+00
              NOTE: External buoyancy is based on members not modelled with WAMIT
                      Internal buoyancy is computed from all members which are marked as filled in the HydroDyn input file, regardless of PropPot flag
                    Total buoyancy does not include WAMIT-modelled buoyancy contribution



Weight loads about ( 0.0, 0.0, 0.0 )
------------------------------------
                                 MGFxi                 MGFyi                 MGFzi                 MGMxi                 MGMyi                 MGMzi  
                                  (N)                   (N)                   (N)                  (N-m)                 (N-m)                 (N-m)  
 Marine Growth:             0.000000E+00          0.000000E+00          0.000000E+00          0.000000E+00          0.000000E+00          0.000000E+00



Nodes


   i    JointIndx   JointOvrlp  InpMbrIndx     Nxi         Nyi         Nzi      InpMbrDist       R         dRdZ         t          tMG        MGDens      PropPot   FilledFlag   FillDens   FillFSLoc       Cd          Ca          Cp         AxCa        AxCp        JAxCd       JAxCa       JAxCp    NConn  Connection List
  (-)      (-)         (-)         (-)         (m)         (m)         (m)          (-)         (m)         (-)        (m)         (m)       (kg/m^3)      (-)         (-)       (kg/m^3)       (-)         (-)         (-)         (-)         (-)         (-)         (-)         (-)         (-)      (-)                  
     1           1           0           1      0.0000      0.0000    -20.0001      0.0000   3.000E+00   0.000E+00   6.000E-02   0.000E+00   0.000E+00           F           F   0.000E+00   0.000E+00   1.000E+00   1.000E+00   1.000E+00   1.000E+00   1.000E+00   0.000E+00   0.000E+00   1.000E+00      1     1
     2           2           0           1      0.0000      0.0000     10.0000      1.0000   3.000E+00   0.000E+00   6.000E-02   0.000E+00   0.000E+00           F           F   0.000E+00   0.000E+00   1.000E+00   1.000E+00   1.000E+00   1.000E+00   1.000E+00   0.000E+00   0.000E+00   1.000E+00      1    61
     3           3           0           1      0.0000      0.0000    -20.0000      0.0000   3.000E+00   0.000E+00   6.000E-02   0.000E+00   0.000E+00           F           F   0.000E+00   0.000E+00   1.000E+00   1.000E+00   1.000E+00   1.000E+00   1.000E+00   0.000E+00   0.000E+00   0.000E+00      1     2
     4           4           0           1      0.0000      0.0000      0.0000      0.6667   3.000E+00   0.000E+00   6.000E-02   0.000E+00   0.000E+00           F           F   0.000E+00   0.000E+00   1.000E+00   1.000E+00   1.000E+00   1.000E+00   1.000E+00   0.000E+00   0.000E+00   0.000E+00      1    42
     5          -1           0           1      0.0000      0.0000    -19.5000      0.0167   3.000E+00   0.000E+00   6.000E-02   0.000E+00   0.000E+00           F           F   0.000E+00   0.000E+00   1.000E+00   1.000E+00   1.000E+00   1.000E+00   1.000E+00   0.000E+00   0.000E+00   0.000E+00      2     2     4
     6          -1           0           1      0.0000      0.0000    -19.0000      0.0333   3.000E+00   0.000E+00   6.000E-02   0.000E+00   0.000E+00           F           F   0.000E+00   0.000E+00   1.000E+00   1.000E+00   1.000E+00   1.000E+00   1.000E+00   0.000E+00   0.000E+00   0.000E+00      2     4     5
     7          -1           0           1      0.0000      0.0000    -18.5000      0.0500   3.000E+00   0.000E+00   6.000E-02   0.000E+00   0.000E+00           F           F   0.000E+00   0.000E+00   1.000E+00   1.000E+00   1.000E+00   1.000E+00   1.000E+00   0.000E+00   0.000E+00   0.000E+00      2     5     6
     8          -1           0           1      0.0000      0.0000    -18.0000      0.0667   3.000E+00   0.000E+00   6.000E-02   0.000E+00   0.000E+00           F           F   0.000E+00   0.000E+00   1.000E+00   1.000E+00   1.000E+00   1.000E+00   1.000E+00   0.000E+00   0.000E+00   0.000E+00      2     6     7
     9          -1           0           1      0.0000      0.0000    -17.5000      0.0833   3.000E+00   0.000E+00   6.000E-02   0.000E+00   0.000E+00           F           F   0.000E+00   0.000E+00   1.000E+00   1.000E+00   1.000E+00   1.000E+00   1.000E+00   0.000E+00   0.000E+00   0.000E+00      2     7     8
    10          -1           0           1      0.0000      0.0000    -17.0000      0.1000   3.000E+00   0.000E+00   6.000E-02   0.000E+00   0.000E+00           F           F   0.000E+00   0.000E+00   1.000E+00   1.000E+00   1.000E+00   1.000E+00   1.000E+00   0.000E+00   0.000E+00   0.000E+00      2     8     9
    11          -1           0           1      0.0000      0.0000    -16.5000      0.1167   3.000E+00   0.000E+00   6.000E-02   0.000E+00   0.000E+00           F           F   0.000E+00   0.000E+00   1.000E+00   1.000E+00   1.000E+00   1.000E+00   1.000E+00   0.000E+00   0.000E+00   0.000E+00      2     9    10
    12          -1           0           1      0.0000      0.0000    -16.0000      0.1333   3.000E+00   0.000E+00   6.000E-02   0.000E+00   0.000E+00           F           F   0.000E+00   0.000E+00   1.000E+00   1.000E+00   1.000E+00   1.000E+00   1.000E+00   0.000E+00   0.000E+00   0.000E+00      2    10    11
    13          -1           0           1      0.0000      0.0000    -15.5000      0.1500   3.000E+00   0.000E+00   6.000E-02   0.000E+00   0.000E+00           F           F   0.000E+00   0.000E+00   1.000E+00   1.000E+00   1.000E+00   1.000E+00   1.000E+00   0.000E+00   0.000E+00   0.000E+00      2    11    12
    14          -1           0           1      0.0000      0.0000    -15.0000      0.1667   3.000E+00   0.000E+00   6.000E-02   0.000E+00   0.000E+00           F           F   0.000E+00   0.000E+00   1.000E+00   1.000E+00   1.000E+00   1.000E+00   1.000E+00   0.000E+00   0.000E+00   0.000E+00      2    12    13
    15          -1           0           1      0.0000      0.0000    -14.5000      0.1833   3.000E+00   0.000E+00   6.000E-02   0.000E+00   0.000E+00           F           F   0.000E+00   0.000E+00   1.000E+00   1.000E+00   1.000E+00   1.000E+00   1.000E+00   0.000E+00   0.000E+00   0.000E+00      2    13    14
    16          -1           0           1      0.0000      0.0000    -14.0000      0.2000   3.000E+00   0.000E+00   6.000E-02   0.000E+00   0.000E+00           F           F   0.000E+00   0.000E+00   1.000E+00   1.000E+00   1.000E+00   1.000E+00   1.000E+00   0.000E+00   0.000E+00   0.000E+00      2    14    15
    17          -1           0           1      0.0000      0.0000    -13.5000      0.2167   3.000E+00   0.000E+00   6.000E-02   0.000E+00   0.000E+00           F           F   0.000E+00   0.000E+00   1.000E+00   1.000E+00   1.000E+00   1.000E+00   1.000E+00   0.000E+00   0.000E+00   0.000E+00      2    15    16
    18          -1           0           1      0.0000      0.0000    -13.0000      0.2333   3.000E+00   0.000E+00   6.000E-02   0.000E+00   0.000E+00           F           F   0.000E+00   0.000E+00   1.000E+00   1.000E+00   1.000E+00   1.000E+00   1.000E+00   0.000E+00   0.000E+00   0.000E+00      2    16    17
    19          -1           0           1      0.0000      0.0000    -12.5000      0.2500   3.000E+00   0.000E+00   6.000E-02   0.000E+00   0.000E+00           F           F   0.000E+00   0.000E+00   1.000E+00   1.000E+00   1.000E+00   1.000E+00   1.000E+00   0.000E+00   0.000E+00   0.000E+00      2    17    18
    20          -1           0           1      0.0000      0.0000    -12.0000      0.2667   3.000E+00   0.000E+00   6.000E-02   0.000E+00   0.000E+00           F           F   0.000E+00   0.000E+00   1.000E+00   1.000E+00   1.000E+00   1.000E+00   1.000E+00   0.000E+00   0.000E+00   0.000E+00      2    18    19
    21          -1           0           1      0.0000      0.0000    -11.5000      0.2833   3.000E+00   0.000E+00   6.000E-02   0.000E+00   0.000E+00           F           F   0.000E+00   0.000E+00   1.000E+00   1.000E+00   1.000E+00   1.000E+00   1.000E+00   0.000E+00   0.000E+00   0.000E+00      2    19    20
    22          -1           0           1      0.0000      0.0000    -11.0000      0.3000   3.000E+00   0.000E+00   6.000E-02   0.000E+00   0.000E+00           F           F   0.000E+00   0.000E+00   1.000E+00   1.000E+00   1.000E+00   1.000E+00   1.000E+00   0.000E+00   0.000E+00   0.000E+00      2    20    21
    23          -1           0           1      0.0000      0.0000    -10.5000      0.3167   3.000E+00   0.000E+00   6.000E-02   0.000E+00   0.000E+00           F           F   0.000E+00   0.000E+00   1.000E+00   1.000E+00   1.000E+00   1.000E+00   1.000E+00   0.000E+00   0.000E+00   0.000E+00      2    21    22
    24          -1           0           1      0.0000      0.0000    -10.0000      0.3333   3.000E+00   0.000E+00   6.000E-02   0.000E+00   0.000E+00           F           F   0.000E+00   0.000E+00   1.000E+00   1.000E+00   1.000E+00   1.000E+00   1.000E+00   0.000E+00   0.000E+00   0.000E+00      2    22    23
    25          -1           0           1      0.0000      0.0000     -9.5000      0.3500   3.000E+00   0.000E+00   6.000E-02   0.000E+00   0.000E+00           F           F   0.000E+00   0.000E+00   1.000E+00   1.000E+00   1.000E+00   1.000E+00   1.000E+00   0.000E+00   0.000E+00   0.000E+00      2    23    24
    26          -1           0           1      0.0000      0.0000     -9.0000      0.3667   3.000E+00   0.000E+00   6.000E-02   0.000E+00   0.000E+00           F           F   0.000E+00   0.000E+00   1.000E+00   1.000E+00   1.000E+00   1.000E+00   1.000E+00   0.000E+00   0.000E+00   0.000E+00      2    24    25
    27          -1           0           1      0.0000      0.0000     -8.5000      0.3833   3.000E+00   0.000E+00   6.000E-02   0.000E+00   0.000E+00           F           F   0.000E+00   0.000E+00   1.000E+00   1.000E+00   1.000E+00   1.000E+00   1.000E+00   0.000E+00   0.000E+00   0.000E+00      2    25    26
    28          -1           0           1      0.0000      0.0000     -8.0000      0.4000   3.000E+00   0.000E+00   6.000E-02   0.000E+00   0.000E+00           F           F   0.000E+00   0.000E+00   1.000E+00   1.000E+00   1.000E+00   1.000E+00   1.000E+00   0.000E+00   0.000E+00   0.000E+00      2    26    27
    29          -1           0           1      0.0000      0.0000     -7.5000      0.4167   3.000E+00   0.000E+00   6.000E-02   0.000E+00   0.000E+00           F           F   0.000E+00   0.000E+00   1.000E+00   1.000E+00   1.000E+00   1.000E+00   1.000E+00   0.000E+00   0.000E+00   0.000E+00      2    27    28
    30          -1           0           1      0.0000      0.0000     -7.0000      0.4333   3.000E+00   0.000E+00   6.000E-02   0.000E+00   0.000E+00           F           F   0.000E+00   0.000E+00   1.000E+00   1.000E+00   1.000E+00   1.000E+00   1.000E+00   0.000E+00   0.000E+00   0.000E+00      2    28    29
    31          -1           0           1      0.0000      0.0000     -6.5000      0.4500   3.000E+00   0.000E+00   6.000E-02   0.000E+00   0.000E+00           F           F   0.000E+00   0.000E+00   1.000E+00   1.000E+00   1.000E+00   1.000E+00   1.000E+00   0.000E+00   0.000E+00   0.000E+00      2    29    30
    32          -1           0           1      0.0000      0.0000     -6.0000      0.4667   3.000E+00   0.000E+00   6.000E-02   0.000E+00   0.000E+00           F           F   0.000E+00   0.000E+00   1.000E+00   1.000E+00   1.000E+00   1.000E+00   1.000E+00   0.000E+00   0.000E+00   0.000E+00      2    30    31
    33          -1           0           1      0.0000      0.0000     -5.5000      0.4833   3.000E+00   0.000E+00   6.000E-02   0.000E+00   0.000E+00           F           F   0.000E+00   0.000E+00   1.000E+00   1.000E+00   1.000E+00   1.000E+00   1.000E+00   0.000E+00   0.000E+00   0.000E+00      2    31    32
    34          -1           0           1      0.0000      0.0000     -5.0000      0.5000   3.000E+00   0.000E+00   6.000E-02   0.000E+00   0.000E+00           F           F   0.000E+00   0.000E+00   1.000E+00   1.000E+00   1.000E+00   1.000E+00   1.000E+00   0.000E+00   0.000E+00   0.000E+00      2    32    33
    35          -1           0           1      0.0000      0.0000     -4.5000      0.5167   3.000E+00   0.000E+00   6.000E-02   0.000E+00   0.000E+00           F           F   0.000E+00   0.000E+00   1.000E+00   1.000E+00   1.000E+00   1.000E+00   1.000E+00   0.000E+00   0.000E+00   0.000E+00      2    33    34
    36          -1           0           1      0.0000      0.0000     -4.0000      0.5333   3.000E+00   0.000E+00   6.000E-02   0.000E+00   0.000E+00           F           F   0.000E+00   0.000E+00   1.000E+00   1.000E+00   1.000E+00   1.000E+00   1.000E+00   0.000E+00   0.000E+00   0.000E+00      2    34    35
    37          -1           0           1      0.0000      0.0000     -3.5000      0.5500   3.000E+00   0.000E+00   6.000E-02   0.000E+00   0.000E+00           F           F   0.000E+00   0.000E+00   1.000E+00   1.000E+00   1.000E+00   1.000E+00   1.000E+00   0.000E+00   0.000E+00   0.000E+00      2    35    36
    38          -1           0           1      0.0000      0.0000     -3.0000      0.5667   3.000E+00   0.000E+00   6.000E-02   0.000E+00   0.000E+00           F           F   0.000E+00   0.000E+00   1.000E+00   1.000E+00   1.000E+00   1.000E+00   1.000E+00   0.000E+00   0.000E+00   0.000E+00      2    36    37
    39          -1           0           1      0.0000      0.0000     -2.5000      0.5833   3.000E+00   0.000E+00   6.000E-02   0.000E+00   0.000E+00           F           F   0.000E+00   0.000E+00   1.000E+00   1.000E+00   1.000E+00   1.000E+00   1.000E+00   0.000E+00   0.000E+00   0.000E+00      2    37    38
    40          -1           0           1      0.0000      0.0000     -2.0000      0.6000   3.000E+00   0.000E+00   6.000E-02   0.000E+00   0.000E+00           F           F   0.000E+00   0.000E+00   1.000E+00   1.000E+00   1.000E+00   1.000E+00   1.000E+00   0.000E+00   0.000E+00   0.000E+00      2    38    39
    41          -1           0           1      0.0000      0.0000     -1.5000      0.6167   3.000E+00   0.000E+00   6.000E-02   0.000E+00   0.000E+00           F           F   0.000E+00   0.000E+00   1.000E+00   1.000E+00   1.000E+00   1.000E+00   1.000E+00   0.000E+00   0.000E+00   0.000E+00      2    39    40
    42          -1           0           1      0.0000      0.0000     -1.0000      0.6333   3.000E+00   0.000E+00   6.000E-02   0.000E+00   0.000E+00           F           F   0.000E+00   0.000E+00   1.000E+00   1.000E+00   1.000E+00   1.000E+00   1.000E+00   0.000E+00   0.000E+00   0.000E+00      2    40    41
    43          -1           0           1      0.0000      0.0000     -0.5000      0.6500   3.000E+00   0.000E+00   6.000E-02   0.000E+00   0.000E+00           F           F   0.000E+00   0.000E+00   1.000E+00   1.000E+00   1.000E+00   1.000E+00   1.000E+00   0.000E+00   0.000E+00   0.000E+00      2    41    42
    44          -1           0           1      0.0000      0.0000      0.5000      0.6833   3.000E+00   0.000E+00   6.000E-02   0.000E+00   0.000E+00           F           F   0.000E+00   0.000E+00   1.000E+00   1.000E+00   1.000E+00   1.000E+00   1.000E+00   0.000E+00   0.000E+00   0.000E+00      2     3    43
    45          -1           0           1      0.0000      0.0000      1.0000      0.7000   3.000E+00   0.000E+00   6.000E-02   0.000E+00   0.000E+00           F           F   0.000E+00   0.000E+00   1.000E+00   1.000E+00   1.000E+00   1.000E+00   1.000E+00   0.000E+00   0.000E+00   0.000E+00      2    43    44
    46          -1           0           1      0.0000      0.0000      1.5000      0.7167   3.000E+00   0.000E+00   6.000E-02   0.000E+00   0.000E+00           F           F   0.000E+00   0.000E+00   1.000E+00   1.000E+00   1.000E+00   1.000E+00   1.000E+00   0.000E+00   0.000E+00   0.000E+00      2    44    45
    47          -1           0           1      0.0000      0.0000      2.0000      0.7333   3.000E+00   0.000E+00   6.000E-02   0.000E+00   0.000E+00           F           F   0.000E+00   0.000E+00   1.000E+00   1.000E+00   1.000E+00   1.000E+00   1.000E+00   0.000E+00   0.000E+00   0.000E+00      2    45    46
    48          -1           0           1      0.0000      0.0000      2.5000      0.7500   3.000E+00   0.000E+00   6.000E-02   0.000E+00   0.000E+00           F           F   0.000E+00   0.000E+00   1.000E+00   1.000E+00   1.000E+00   1.000E+00   1.000E+00   0.000E+00   0.000E+00   0.000E+00      2    46    47
    49          -1           0           1      0.0000      0.0000      3.0000      0.7667   3.000E+00   0.000E+00   6.000E-02   0.000E+00   0.000E+00           F           F   0.000E+00   0.000E+00   1.000E+00   1.000E+00   1.000E+00   1.000E+00   1.000E+00   0.000E+00   0.000E+00   0.000E+00      2    47    48
    50          -1           0           1      0.0000      0.0000      3.5000      0.7833   3.000E+00   0.000E+00   6.000E-02   0.000E+00   0.000E+00           F           F   0.000E+00   0.000E+00   1.000E+00   1.000E+00   1.000E+00   1.000E+00   1.000E+00   0.000E+00   0.000E+00   0.000E+00      2    48    49
    51          -1           0           1      0.0000      0.0000      4.0000      0.8000   3.000E+00   0.000E+00   6.000E-02   0.000E+00   0.000E+00           F           F   0.000E+00   0.000E+00   1.000E+00   1.000E+00   1.000E+00   1.000E+00   1.000E+00   0.000E+00   0.000E+00   0.000E+00      2    49    50
    52          -1           0           1      0.0000      0.0000      4.5000      0.8167   3.000E+00   0.000E+00   6.000E-02   0.000E+00   0.000E+00           F           F   0.000E+00   0.000E+00   1.000E+00   1.000E+00   1.000E+00   1.000E+00   1.000E+00   0.000E+00   0.000E+00   0.000E+00      2    50    51
    53          -1           0           1      0.0000      0.0000      5.0000      0.8333   3.000E+00   0.000E+00   6.000E-02   0.000E+00   0.000E+00           F           F   0.000E+00   0.000E+00   1.000E+00   1.000E+00   1.000E+00   1.000E+00   1.000E+00   0.000E+00   0.000E+00   0.000E+00      2    51    52
    54          -1           0           1      0.0000      0.0000      5.5000      0.8500   3.000E+00   0.000E+00   6.000E-02   0.000E+00   0.000E+00           F           F   0.000E+00   0.000E+00   1.000E+00   1.000E+00   1.000E+00   1.000E+00   1.000E+00   0.000E+00   0.000E+00   0.000E+00      2    52    53
    55          -1           0           1      0.0000      0.0000      6.0000      0.8667   3.000E+00   0.000E+00   6.000E-02   0.000E+00   0.000E+00           F           F   0.000E+00   0.000E+00   1.000E+00   1.000E+00   1.000E+00   1.000E+00   1.000E+00   0.000E+00   0.000E+00   0.000E+00      2    53    54
    56          -1           0           1      0.0000      0.0000      6.5000      0.8833   3.000E+00   0.000E+00   6.000E-02   0.000E+00   0.000E+00           F           F   0.000E+00   0.000E+00   1.000E+00   1.000E+00   1.000E+00   1.000E+00   1.000E+00   0.000E+00   0.000E+00   0.000E+00      2    54    55
    57          -1           0           1      0.0000      0.0000      7.0000      0.9000   3.000E+00   0.000E+00   6.000E-02   0.000E+00   0.000E+00           F           F   0.000E+00   0.000E+00   1.000E+00   1.000E+00   1.000E+00   1.000E+00   1.000E+00   0.000E+00   0.000E+00   0.000E+00      2    55    56
    58          -1           0           1      0.0000      0.0000      7.5000      0.9167   3.000E+00   0.000E+00   6.000E-02   0.000E+00   0.000E+00           F           F   0.000E+00   0.000E+00   1.000E+00   1.000E+00   1.000E+00   1.000E+00   1.000E+00   0.000E+00   0.000E+00   0.000E+00      2    56    57
    59          -1           0           1      0.0000      0.0000      8.0000      0.9333   3.000E+00   0.000E+00   6.000E-02   0.000E+00   0.000E+00           F           F   0.000E+00   0.000E+00   1.000E+00   1.000E+00   1.000E+00   1.000E+00   1.000E+00   0.000E+00   0.000E+00   0.000E+00      2    57    58
    60          -1           0           1      0.0000      0.0000      8.5000      0.9500   3.000E+00   0.000E+00   6.000E-02   0.000E+00   0.000E+00           F           F   0.000E+00   0.000E+00   1.000E+00   1.000E+00   1.000E+00   1.000E+00   1.000E+00   0.000E+00   0.000E+00   0.000E+00      2    58    59
    61          -1           0           1      0.0000      0.0000      9.0000      0.9667   3.000E+00   0.000E+00   6.000E-02   0.000E+00   0.000E+00           F           F   0.000E+00   0.000E+00   1.000E+00   1.000E+00   1.000E+00   1.000E+00   1.000E+00   0.000E+00   0.000E+00   0.000E+00      2    59    60
    62          -1           0           1      0.0000      0.0000      9.5000      0.9833   3.000E+00   0.000E+00   6.000E-02   0.000E+00   0.000E+00           F           F   0.000E+00   0.000E+00   1.000E+00   1.000E+00   1.000E+00   1.000E+00   1.000E+00   0.000E+00   0.000E+00   0.000E+00      2    60    61
    63           3           0           1      0.0000      0.0000    -20.0000      0.0000   3.000E+00   0.000E+00   6.000E-02   0.000E+00   0.000E+00           F           F   0.000E+00   0.000E+00   1.000E+00   1.000E+00   1.000E+00   1.000E+00   1.000E+00   0.000E+00   0.000E+00   0.000E+00      1     1
    64           4           0           1      0.0000      0.0000      0.0000      0.6667   3.000E+00   0.000E+00   6.000E-02   0.000E+00   0.000E+00           F           F   0.000E+00   0.000E+00   1.000E+00   1.000E+00   1.000E+00   1.000E+00   1.000E+00   0.000E+00   0.000E+00   0.000E+00      1     3



Elements


   i    node1  node2      Length       Volume       MGVolume          R1          tMG1           t1             R2          tMG2           t2          MGDens1       MGDens2        PropPot     FilledFlag   FillDensity    FillFSLoc     FillMass         Cd1            Ca1          Cp1          AxCa1         AxCp1        JAxCd1        JAxCa1        JAxCp1          Cd2           Ca2           Cp2          AxCa2         AxCp2        JAxCd2        JAxCa2        JAxCp2   
  (-)    (-)    (-)        (m)         (m^3)         (m^3)           (m)           (m)           (m)           (m)           (m)           (m)        (kg/m^3)      (kg/m^3)         (-)           (-)        (kg/m^3)         (-)          (kg)           (-)            (-)          (-)           (-)           (-)           (-)           (-)           (-)           (-)            (-)          (-)           (-)           (-)           (-)           (-)           (-)    
     1      1     63   9.91821E-05   2.80431E-03   0.00000E+00   3.00000E+00   0.00000E+00   6.00000E-02   3.00000E+00   0.00000E+00   6.00000E-02   0.00000E+00   0.00000E+00             F             F   0.00000E+00   0.00000E+00   0.00000E+00   1.00000E+00   1.00000E+00   1.00000E+00   1.00000E+00   1.00000E+00   0.00000E+00   0.00000E+00   1.00000E+00   1.00000E+00   1.00000E+00   1.00000E+00   1.00000E+00   1.00000E+00   0.00000E+00   0.00000E+00   0.00000E+00
     2      3      5   5.00000E-01   1.41372E+01   0.00000E+00   3.00000E+00   0.00000E+00   6.00000E-02   3.00000E+00   0.00000E+00   6.00000E-02   0.00000E+00   0.00000E+00             F             F   0.00000E+00   0.00000E+00   0.00000E+00   1.00000E+00   1.00000E+00   1.00000E+00   1.00000E+00   1.00000E+00   0.00000E+00   0.00000E+00   0.00000E+00   1.00000E+00   1.00000E+00   1.00000E+00   1.00000E+00   1.00000E+00   0.00000E+00   0.00000E+00   0.00000E+00
     3     64     44   5.00000E-01   1.41372E+01   0.00000E+00   3.00000E+00   0.00000E+00   6.00000E-02   3.00000E+00   0.00000E+00   6.00000E-02   0.00000E+00   0.00000E+00             F             F   0.00000E+00   0.00000E+00   0.00000E+00   1.00000E+00   1.00000E+00   1.00000E+00   1.00000E+00   1.00000E+00   0.00000E+00   0.00000E+00   0.00000E+00   1.00000E+00   1.00000E+00   1.00000E+00   1.00000E+00   1.00000E+00   0.00000E+00   0.00000E+00   0.00000E+00
     4      5      6   5.00000E-01   1.41372E+01   0.00000E+00   3.00000E+00   0.00000E+00   6.00000E-02   3.00000E+00   0.00000E+00   6.00000E-02   0.00000E+00   0.00000E+00             F             F   0.00000E+00   0.00000E+00   0.00000E+00   1.00000E+00   1.00000E+00   1.00000E+00   1.00000E+00   1.00000E+00   0.00000E+00   0.00000E+00   0.00000E+00   1.00000E+00   1.00000E+00   1.00000E+00   1.00000E+00   1.00000E+00   0.00000E+00   0.00000E+00   0.00000E+00
     5      6      7   5.00000E-01   1.41372E+01   0.00000E+00   3.00000E+00   0.00000E+00   6.00000E-02   3.00000E+00   0.00000E+00   6.00000E-02   0.00000E+00   0.00000E+00             F             F   0.00000E+00   0.00000E+00   0.00000E+00   1.00000E+00   1.00000E+00   1.00000E+00   1.00000E+00   1.00000E+00   0.00000E+00   0.00000E+00   0.00000E+00   1.00000E+00   1.00000E+00   1.00000E+00   1.00000E+00   1.00000E+00   0.00000E+00   0.00000E+00   0.00000E+00
     6      7      8   5.00000E-01   1.41372E+01   0.00000E+00   3.00000E+00   0.00000E+00   6.00000E-02   3.00000E+00   0.00000E+00   6.00000E-02   0.00000E+00   0.00000E+00             F             F   0.00000E+00   0.00000E+00   0.00000E+00   1.00000E+00   1.00000E+00   1.00000E+00   1.00000E+00   1.00000E+00   0.00000E+00   0.00000E+00   0.00000E+00   1.00000E+00   1.00000E+00   1.00000E+00   1.00000E+00   1.00000E+00   0.00000E+00   0.00000E+00   0.00000E+00
     7      8      9   5.00000E-01   1.41372E+01   0.00000E+00   3.00000E+00   0.00000E+00   6.00000E-02   3.00000E+00   0.00000E+00   6.00000E-02   0.00000E+00   0.00000E+00             F             F   0.00000E+00   0.00000E+00   0.00000E+00   1.00000E+00   1.00000E+00   1.00000E+00   1.00000E+00   1.00000E+00   0.00000E+00   0.00000E+00   0.00000E+00   1.00000E+00   1.00000E+00   1.00000E+00   1.00000E+00   1.00000E+00   0.00000E+00   0.00000E+00   0.00000E+00
     8      9     10   5.00000E-01   1.41372E+01   0.00000E+00   3.00000E+00   0.00000E+00   6.00000E-02   3.00000E+00   0.00000E+00   6.00000E-02   0.00000E+00   0.00000E+00             F             F   0.00000E+00   0.00000E+00   0.00000E+00   1.00000E+00   1.00000E+00   1.00000E+00   1.00000E+00   1.00000E+00   0.00000E+00   0.00000E+00   0.00000E+00   1.00000E+00   1.00000E+00   1.00000E+00   1.00000E+00   1.00000E+00   0.00000E+00   0.00000E+00   0.00000E+00
     9     10     11   5.00000E-01   1.41372E+01   0.00000E+00   3.00000E+00   0.00000E+00   6.00000E-02   3.00000E+00   0.00000E+00   6.00000E-02   0.00000E+00   0.00000E+00             F             F   0.00000E+00   0.00000E+00   0.00000E+00   1.00000E+00   1.00000E+00   1.00000E+00   1.00000E+00   1.00000E+00   0.00000E+00   0.00000E+00   0.00000E+00   1.00000E+00   1.00000E+00   1.00000E+00   1.00000E+00   1.00000E+00   0.00000E+00   0.00000E+00   0.00000E+00
    10     11     12   5.00000E-01   1.41372E+01   0.00000E+00   3.00000E+00   0.00000E+00   6.00000E-02   3.00000E+00   0.00000E+00   6.00000E-02   0.00000E+00   0.00000E+00             F             F   0.00000E+00   0.00000E+00   0.00000E+00   1.00000E+00   1.00000E+00   1.00000E+00   1.00000E+00   1.00000E+00   0.00000E+00   0.00000E+00   0.00000E+00   1.00000E+00   1.00000E+00   1.00000E+00   1.00000E+00   1.00000E+00   0.00000E+00   0.00000E+00   0.00000E+00
    11     12     13   5.00000E-01   1.41372E+01   0.00000E+00   3.00000E+00   0.00000E+00   6.00000E-02   3.00000E+00   0.00000E+00   6.00000E-02   0.00000E+00   0.00000E+00             F             F   0.00000E+00   0.00000E+00   0.00000E+00   1.00000E+00   1.00000E+00   1.00000E+00   1.00000E+00   1.00000E+00   0.00000E+00   0.00000E+00   0.00000E+00   1.00000E+00   1.00000E+00   1.00000E+00   1.00000E+00   1.00000E+00   0.00000E+00   0.00000E+00   0.00000E+00
    12     13     14   5.00000E-01   1.41372E+01   0.00000E+00   3.00000E+00   0.00000E+00   6.00000E-02   3.00000E+00   0.00000E+00   6.00000E-02   0.00000E+00   0.00000E+00             F             F   0.00000E+00   0.00000E+00   0.00000E+00   1.00000E+00   1.00000E+00   1.00000E+00   1.00000E+00   1.00000E+00   0.00000E+00   0.00000E+00   0.00000E+00   1.00000E+00   1.00000E+00   1.00000E+00   1.00000E+00   1.00000E+00   0.00000E+00   0.00000E+00   0.00000E+00
    13     14     15   5.00000E-01   1.41372E+01  -1.90735E-06   3.00000E+00   0.00000E+00   6.00000E-02   3.00000E+00   0.00000E+00   6.00000E-02   0.00000E+00   0.00000E+00             F             F   0.00000E+00   0.00000E+00   0.00000E+00   1.00000E+00   1.00000E+00   1.00000E+00   1.00000E+00   1.00000E+00   0.00000E+00   0.00000E+00   0.00000E+00   1.00000E+00   1.00000E+00   1.00000E+00   1.00000E+00   1.00000E+00   0.00000E+00   0.00000E+00   0.00000E+00
    14     15     16   5.00000E-01   1.41372E+01   0.00000E+00   3.00000E+00   0.00000E+00   6.00000E-02   3.00000E+00   0.00000E+00   6.00000E-02   0.00000E+00   0.00000E+00             F             F   0.00000E+00   0.00000E+00   0.00000E+00   1.00000E+00   1.00000E+00   1.00000E+00   1.00000E+00   1.00000E+00   0.00000E+00   0.00000E+00   0.00000E+00   1.00000E+00   1.00000E+00   1.00000E+00   1.00000E+00   1.00000E+00   0.00000E+00   0.00000E+00   0.00000E+00
    15     16     17   5.00000E-01   1.41372E+01   0.00000E+00   3.00000E+00   0.00000E+00   6.00000E-02   3.00000E+00   0.00000E+00   6.00000E-02   0.00000E+00   0.00000E+00             F             F   0.00000E+00   0.00000E+00   0.00000E+00   1.00000E+00   1.00000E+00   1.00000E+00   1.00000E+00   1.00000E+00   0.00000E+00   0.00000E+00   0.00000E+00   1.00000E+00   1.00000E+00   1.00000E+00   1.00000E+00   1.00000E+00   0.00000E+00   0.00000E+00   0.00000E+00
    16     17     18   5.00000E-01   1.41372E+01   1.90735E-06   3.00000E+00   0.00000E+00   6.00000E-02   3.00000E+00   0.00000E+00   6.00000E-02   0.00000E+00   0.00000E+00             F             F   0.00000E+00   0.00000E+00   0.00000E+00   1.00000E+00   1.00000E+00   1.00000E+00   1.00000E+00   1.00000E+00   0.00000E+00   0.00000E+00   0.00000E+00   1.00000E+00   1.00000E+00   1.00000E+00   1.00000E+00   1.00000E+00   0.00000E+00   0.00000E+00   0.00000E+00
    17     18     19   5.00000E-01   1.41372E+01   0.00000E+00   3.00000E+00   0.00000E+00   6.00000E-02   3.00000E+00   0.00000E+00   6.00000E-02   0.00000E+00   0.00000E+00             F             F   0.00000E+00   0.00000E+00   0.00000E+00   1.00000E+00   1.00000E+00   1.00000E+00   1.00000E+00   1.00000E+00   0.00000E+00   0.00000E+00   0.00000E+00   1.00000E+00   1.00000E+00   1.00000E+00   1.00000E+00   1.00000E+00   0.00000E+00   0.00000E+00   0.00000E+00
    18     19     20   5.00000E-01   1.41372E+01  -1.90735E-06   3.00000E+00   0.00000E+00   6.00000E-02   3.00000E+00   0.00000E+00   6.00000E-02   0.00000E+00   0.00000E+00             F             F   0.00000E+00   0.00000E+00   0.00000E+00   1.00000E+00   1.00000E+00   1.00000E+00   1.00000E+00   1.00000E+00   0.00000E+00   0.00000E+00   0.00000E+00   1.00000E+00   1.00000E+00   1.00000E+00   1.00000E+00   1.00000E+00   0.00000E+00   0.00000E+00   0.00000E+00
    19     20     21   5.00000E-01   1.41372E+01   0.00000E+00   3.00000E+00   0.00000E+00   6.00000E-02   3.00000E+00   0.00000E+00   6.00000E-02   0.00000E+00   0.00000E+00             F             F   0.00000E+00   0.00000E+00   0.00000E+00   1.00000E+00   1.00000E+00   1.00000E+00   1.00000E+00   1.00000E+00   0.00000E+00   0.00000E+00   0.00000E+00   1.00000E+00   1.00000E+00   1.00000E+00   1.00000E+00   1.00000E+00   0.00000E+00   0.00000E+00   0.00000E+00
    20     21     22   5.00000E-01   1.41372E+01   0.00000E+00   3.00000E+00   0.00000E+00   6.00000E-02   3.00000E+00   0.00000E+00   6.00000E-02   0.00000E+00   0.00000E+00             F             F   0.00000E+00   0.00000E+00   0.00000E+00   1.00000E+00   1.00000E+00   1.00000E+00   1.00000E+00   1.00000E+00   0.00000E+00   0.00000E+00   0.00000E+00   1.00000E+00   1.00000E+00   1.00000E+00   1.00000E+00   1.00000E+00   0.00000E+00   0.00000E+00   0.00000E+00
    21     22     23   5.00000E-01   1.41372E+01   0.00000E+00   3.00000E+00   0.00000E+00   6.00000E-02   3.00000E+00   0.00000E+00   6.00000E-02   0.00000E+00   0.00000E+00             F             F   0.00000E+00   0.00000E+00   0.00000E+00   1.00000E+00   1.00000E+00   1.00000E+00   1.00000E+00   1.00000E+00   0.00000E+00   0.00000E+00   0.00000E+00   1.00000E+00   1.00000E+00   1.00000E+00   1.00000E+00   1.00000E+00   0.00000E+00   0.00000E+00   0.00000E+00
    22     23     24   5.00000E-01   1.41372E+01   0.00000E+00   3.00000E+00   0.00000E+00   6.00000E-02   3.00000E+00   0.00000E+00   6.00000E-02   0.00000E+00   0.00000E+00             F             F   0.00000E+00   0.00000E+00   0.00000E+00   1.00000E+00   1.00000E+00   1.00000E+00   1.00000E+00   1.00000E+00   0.00000E+00   0.00000E+00   0.00000E+00   1.00000E+00   1.00000E+00   1.00000E+00   1.00000E+00   1.00000E+00   0.00000E+00   0.00000E+00   0.00000E+00
    23     24     25   5.00000E-01   1.41372E+01   0.00000E+00   3.00000E+00   0.00000E+00   6.00000E-02   3.00000E+00   0.00000E+00   6.00000E-02   0.00000E+00   0.00000E+00             F             F   0.00000E+00   0.00000E+00   0.00000E+00   1.00000E+00   1.00000E+00   1.00000E+00   1.00000E+00   1.00000E+00   0.00000E+00   0.00000E+00   0.00000E+00   1.00000E+00   1.00000E+00   1.00000E+00   1.00000E+00   1.00000E+00   0.00000E+00   0.00000E+00   0.00000E+00
    24     25     26   5.00000E-01   1.41372E+01   1.90735E-06   3.00000E+00   0.00000E+00   6.00000E-02   3.00000E+00   0.00000E+00   6.00000E-02   0.00000E+00   0.00000E+00             F             F   0.00000E+00   0.00000E+00   0.00000E+00   1.00000E+00   1.00000E+00   1.00000E+00   1.00000E+00   1.00000E+00   0.00000E+00   0.00000E+00   0.00000E+00   1.00000E+00   1.00000E+00   1.00000E+00   1.00000E+00   1.00000E+00   0.00000E+00   0.00000E+00   0.00000E+00
    25     26     27   5.00000E-01   1.41372E+01   0.00000E+00   3.00000E+00   0.00000E+00   6.00000E-02   3.00000E+00   0.00000E+00   6.00000E-02   0.00000E+00   0.00000E+00             F             F   0.00000E+00   0.00000E+00   0.00000E+00   1.00000E+00   1.00000E+00   1.00000E+00   1.00000E+00   1.00000E+00   0.00000E+00   0.00000E+00   0.00000E+00   1.00000E+00   1.00000E+00   1.00000E+00   1.00000E+00   1.00000E+00   0.00000E+00   0.00000E+00   0.00000E+00
    26     27     28   5.00000E-01   1.41372E+01   0.00000E+00   3.00000E+00   0.00000E+00   6.00000E-02   3.00000E+00   0.00000E+00   6.00000E-02   0.00000E+00   0.00000E+00             F             F   0.00000E+00   0.00000E+00   0.00000E+00   1.00000E+00   1.00000E+00   1.00000E+00   1.00000E+00   1.00000E+00   0.00000E+00   0.00000E+00   0.00000E+00   1.00000E+00   1.00000E+00   1.00000E+00   1.00000E+00   1.00000E+00   0.00000E+00   0.00000E+00   0.00000E+00
    27     28     29   5.00000E-01   1.41372E+01   0.00000E+00   3.00000E+00   0.00000E+00   6.00000E-02   3.00000E+00   0.00000E+00   6.00000E-02   0.00000E+00   0.00000E+00             F             F   0.00000E+00   0.00000E+00   0.00000E+00   1.00000E+00   1.00000E+00   1.00000E+00   1.00000E+00   1.00000E+00   0.00000E+00   0.00000E+00   0.00000E+00   1.00000E+00   1.00000E+00   1.00000E+00   1.00000E+00   1.00000E+00   0.00000E+00   0.00000E+00   0.00000E+00
    28     29     30   5.00000E-01   1.41372E+01   0.00000E+00   3.00000E+00   0.00000E+00   6.00000E-02   3.00000E+00   0.00000E+00   6.00000E-02   0.00000E+00   0.00000E+00             F             F   0.00000E+00   0.00000E+00   0.00000E+00   1.00000E+00   1.00000E+00   1.00000E+00   1.00000E+00   1.00000E+00   0.00000E+00   0.00000E+00   0.00000E+00   1.00000E+00   1.00000E+00   1.00000E+00   1.00000E+00   1.00000E+00   0.00000E+00   0.00000E+00   0.00000E+00
    29     30     31   5.00000E-01   1.41372E+01   0.00000E+00   3.00000E+00   0.00000E+00   6.00000E-02   3.00000E+00   0.00000E+00   6.00000E-02   0.00000E+00   0.00000E+00             F             F   0.00000E+00   0.00000E+00   0.00000E+00   1.00000E+00   1.00000E+00   1.00000E+00   1.00000E+00   1.00000E+00   0.00000E+00   0.00000E+00   0.00000E+00   1.00000E+00   1.00000E+00   1.00000E+00   1.00000E+00   1.00000E+00   0.00000E+00   0.00000E+00   0.00000E+00
    30     31     32   5.00000E-01   1.41372E+01   0.00000E+00   3.00000E+00   0.00000E+00   6.00000E-02   3.00000E+00   0.00000E+00   6.00000E-02   0.00000E+00   0.00000E+00             F             F   0.00000E+00   0.00000E+00   0.00000E+00   1.00000E+00   1.00000E+00   1.00000E+00   1.00000E+00   1.00000E+00   0.00000E+00   0.00000E+00   0.00000E+00   1.00000E+00   1.00000E+00   1.00000E+00   1.00000E+00   1.00000E+00   0.00000E+00   0.00000E+00   0.00000E+00
    31     32     33   5.00000E-01   1.41372E+01   0.00000E+00   3.00000E+00   0.00000E+00   6.00000E-02   3.00000E+00   0.00000E+00   6.00000E-02   0.00000E+00   0.00000E+00             F             F   0.00000E+00   0.00000E+00   0.00000E+00   1.00000E+00   1.00000E+00   1.00000E+00   1.00000E+00   1.00000E+00   0.00000E+00   0.00000E+00   0.00000E+00   1.00000E+00   1.00000E+00   1.00000E+00   1.00000E+00   1.00000E+00   0.00000E+00   0.00000E+00   0.00000E+00
    32     33     34   5.00000E-01   1.41372E+01  -1.90735E-06   3.00000E+00   0.00000E+00   6.00000E-02   3.00000E+00   0.00000E+00   6.00000E-02   0.00000E+00   0.00000E+00             F             F   0.00000E+00   0.00000E+00   0.00000E+00   1.00000E+00   1.00000E+00   1.00000E+00   1.00000E+00   1.00000E+00   0.00000E+00   0.00000E+00   0.00000E+00   1.00000E+00   1.00000E+00   1.00000E+00   1.00000E+00   1.00000E+00   0.00000E+00   0.00000E+00   0.00000E+00
    33     34     35   5.00000E-01   1.41372E+01   0.00000E+00   3.00000E+00   0.00000E+00   6.00000E-02   3.00000E+00   0.00000E+00   6.00000E-02   0.00000E+00   0.00000E+00             F             F   0.00000E+00   0.00000E+00   0.00000E+00   1.00000E+00   1.00000E+00   1.00000E+00   1.00000E+00   1.00000E+00   0.00000E+00   0.00000E+00   0.00000E+00   1.00000E+00   1.00000E+00   1.00000E+00   1.00000E+00   1.00000E+00   0.00000E+00   0.00000E+00   0.00000E+00
    34     35     36   5.00000E-01   1.41372E+01   0.00000E+00   3.00000E+00   0.00000E+00   6.00000E-02   3.00000E+00   0.00000E+00   6.00000E-02   0.00000E+00   0.00000E+00             F             F   0.00000E+00   0.00000E+00   0.00000E+00   1.00000E+00   1.00000E+00   1.00000E+00   1.00000E+00   1.00000E+00   0.00000E+00   0.00000E+00   0.00000E+00   1.00000E+00   1.00000E+00   1.00000E+00   1.00000E+00   1.00000E+00   0.00000E+00   0.00000E+00   0.00000E+00
    35     36     37   5.00000E-01   1.41372E+01   0.00000E+00   3.00000E+00   0.00000E+00   6.00000E-02   3.00000E+00   0.00000E+00   6.00000E-02   0.00000E+00   0.00000E+00             F             F   0.00000E+00   0.00000E+00   0.00000E+00   1.00000E+00   1.00000E+00   1.00000E+00   1.00000E+00   1.00000E+00   0.00000E+00   0.00000E+00   0.00000E+00   1.00000E+00   1.00000E+00   1.00000E+00   1.00000E+00   1.00000E+00   0.00000E+00   0.00000E+00   0.00000E+00
    36     37     38   5.00000E-01   1.41372E+01   0.00000E+00   3.00000E+00   0.00000E+00   6.00000E-02   3.00000E+00   0.00000E+00   6.00000E-02   0.00000E+00   0.00000E+00             F             F   0.00000E+00   0.00000E+00   0.00000E+00   1.00000E+00   1.00000E+00   1.00000E+00   1.00000E+00   1.00000E+00   0.00000E+00   0.00000E+00   0.00000E+00   1.00000E+00   1.00000E+00   1.00000E+00   1.00000E+00   1.00000E+00   0.00000E+00   0.00000E+00   0.00000E+00
    37     38     39   5.00000E-01   1.41372E+01   0.00000E+00   3.00000E+00   0.00000E+00   6.00000E-02   3.00000E+00   0.00000E+00   6.00000E-02   0.00000E+00   0.00000E+00             F             F   0.00000E+00   0.00000E+00   0.00000E+00   1.00000E+00   1.00000E+00   1.00000E+00   1.00000E+00   1.00000E+00   0.00000E+00   0.00000E+00   0.00000E+00   1.00000E+00   1.00000E+00   1.00000E+00   1.00000E+00   1.00000E+00   0.00000E+00   0.00000E+00   0.00000E+00
    38     39     40   5.00000E-01   1.41372E+01   1.90735E-06   3.00000E+00   0.00000E+00   6.00000E-02   3.00000E+00   0.00000E+00   6.00000E-02   0.00000E+00   0.00000E+00             F             F   0.00000E+00   0.00000E+00   0.00000E+00   1.00000E+00   1.00000E+00   1.00000E+00   1.00000E+00   1.00000E+00   0.00000E+00   0.00000E+00   0.00000E+00   1.00000E+00   1.00000E+00   1.00000E+00   1.00000E+00   1.00000E+00   0.00000E+00   0.00000E+00   0.00000E+00
    39     40     41   5.00000E-01   1.41372E+01   0.00000E+00   3.00000E+00   0.00000E+00   6.00000E-02   3.00000E+00   0.00000E+00   6.00000E-02   0.00000E+00   0.00000E+00             F             F   0.00000E+00   0.00000E+00   0.00000E+00   1.00000E+00   1.00000E+00   1.00000E+00   1.00000E+00   1.00000E+00   0.00000E+00   0.00000E+00   0.00000E+00   1.00000E+00   1.00000E+00   1.00000E+00   1.00000E+00   1.00000E+00   0.00000E+00   0.00000E+00   0.00000E+00
    40     41     42   5.00000E-01   1.41372E+01   0.00000E+00   3.00000E+00   0.00000E+00   6.00000E-02   3.00000E+00   0.00000E+00   6.00000E-02   0.00000E+00   0.00000E+00             F             F   0.00000E+00   0.00000E+00   0.00000E+00   1.00000E+00   1.00000E+00   1.00000E+00   1.00000E+00   1.00000E+00   0.00000E+00   0.00000E+00   0.00000E+00   1.00000E+00   1.00000E+00   1.00000E+00   1.00000E+00   1.00000E+00   0.00000E+00   0.00000E+00   0.00000E+00
    41     42     43   5.00000E-01   1.41372E+01   0.00000E+00   3.00000E+00   0.00000E+00   6.00000E-02   3.00000E+00   0.00000E+00   6.00000E-02   0.00000E+00   0.00000E+00             F             F   0.00000E+00   0.00000E+00   0.00000E+00   1.00000E+00   1.00000E+00   1.00000E+00   1.00000E+00   1.00000E+00   0.00000E+00   0.00000E+00   0.00000E+00   1.00000E+00   1.00000E+00   1.00000E+00   1.00000E+00   1.00000E+00   0.00000E+00   0.00000E+00   0.00000E+00
    42     43      4   5.00000E-01   1.41372E+01   0.00000E+00   3.00000E+00   0.00000E+00   6.00000E-02   3.00000E+00   0.00000E+00   6.00000E-02   0.00000E+00   0.00000E+00             F             F   0.00000E+00   0.00000E+00   0.00000E+00   1.00000E+00   1.00000E+00   1.00000E+00   1.00000E+00   1.00000E+00   0.00000E+00   0.00000E+00   0.00000E+00   1.00000E+00   1.00000E+00   1.00000E+00   1.00000E+00   1.00000E+00   0.00000E+00   0.00000E+00   0.00000E+00
    43     44     45   5.00000E-01   1.41372E+01   0.00000E+00   3.00000E+00   0.00000E+00   6.00000E-02   3.00000E+00   0.00000E+00   6.00000E-02   0.00000E+00   0.00000E+00             F             F   0.00000E+00   0.00000E+00   0.00000E+00   1.00000E+00   1.00000E+00   1.00000E+00   1.00000E+00   1.00000E+00   0.00000E+00   0.00000E+00   0.00000E+00   1.00000E+00   1.00000E+00   1.00000E+00   1.00000E+00   1.00000E+00   0.00000E+00   0.00000E+00   0.00000E+00
    44     45     46   5.00000E-01   1.41372E+01   0.00000E+00   3.00000E+00   0.00000E+00   6.00000E-02   3.00000E+00   0.00000E+00   6.00000E-02   0.00000E+00   0.00000E+00             F             F   0.00000E+00   0.00000E+00   0.00000E+00   1.00000E+00   1.00000E+00   1.00000E+00   1.00000E+00   1.00000E+00   0.00000E+00   0.00000E+00   0.00000E+00   1.00000E+00   1.00000E+00   1.00000E+00   1.00000E+00   1.00000E+00   0.00000E+00   0.00000E+00   0.00000E+00
    45     46     47   5.00000E-01   1.41372E+01   0.00000E+00   3.00000E+00   0.00000E+00   6.00000E-02   3.00000E+00   0.00000E+00   6.00000E-02   0.00000E+00   0.00000E+00             F             F   0.00000E+00   0.00000E+00   0.00000E+00   1.00000E+00   1.00000E+00   1.00000E+00   1.00000E+00   1.00000E+00   0.00000E+00   0.00000E+00   0.00000E+00   1.00000E+00   1.00000E+00   1.00000E+00   1.00000E+00   1.00000E+00   0.00000E+00   0.00000E+00   0.00000E+00
    46     47     48   5.00000E-01   1.41372E+01   0.00000E+00   3.00000E+00   0.00000E+00   6.00000E-02   3.00000E+00   0.00000E+00   6.00000E-02   0.00000E+00   0.00000E+00             F             F   0.00000E+00   0.00000E+00   0.00000E+00   1.00000E+00   1.00000E+00   1.00000E+00   1.00000E+00   1.00000E+00   0.00000E+00   0.00000E+00   0.00000E+00   1.00000E+00   1.00000E+00   1.00000E+00   1.00000E+00   1.00000E+00   0.00000E+00   0.00000E+00   0.00000E+00
    47     48     49   5.00000E-01   1.41372E+01   0.00000E+00   3.00000E+00   0.00000E+00   6.00000E-02   3.00000E+00   0.00000E+00   6.00000E-02   0.00000E+00   0.00000E+00             F             F   0.00000E+00   0.00000E+00   0.00000E+00   1.00000E+00   1.00000E+00   1.00000E+00   1.00000E+00   1.00000E+00   0.00000E+00   0.00000E+00   0.00000E+00   1.00000E+00   1.00000E+00   1.00000E+00   1.00000E+00   1.00000E+00   0.00000E+00   0.00000E+00   0.00000E+00
    48     49     50   5.00000E-01   1.41372E+01   0.00000E+00   3.00000E+00   0.00000E+00   6.00000E-02   3.00000E+00   0.00000E+00   6.00000E-02   0.00000E+00   0.00000E+00             F             F   0.00000E+00   0.00000E+00   0.00000E+00   1.00000E+00   1.00000E+00   1.00000E+00   1.00000E+00   1.00000E+00   0.00000E+00   0.00000E+00   0.00000E+00   1.00000E+00   1.00000E+00   1.00000E+00   1.00000E+00   1.00000E+00   0.00000E+00   0.00000E+00   0.00000E+00
    49     50     51   5.00000E-01   1.41372E+01   0.00000E+00   3.00000E+00   0.00000E+00   6.00000E-02   3.00000E+00   0.00000E+00   6.00000E-02   0.00000E+00   0.00000E+00             F             F   0.00000E+00   0.00000E+00   0.00000E+00   1.00000E+00   1.00000E+00   1.00000E+00   1.00000E+00   1.00000E+00   0.00000E+00   0.00000E+00   0.00000E+00   1.00000E+00   1.00000E+00   1.00000E+00   1.00000E+00   1.00000E+00   0.00000E+00   0.00000E+00   0.00000E+00
    50     51     52   5.00000E-01   1.41372E+01   0.00000E+00   3.00000E+00   0.00000E+00   6.00000E-02   3.00000E+00   0.00000E+00   6.00000E-02   0.00000E+00   0.00000E+00             F             F   0.00000E+00   0.00000E+00   0.00000E+00   1.00000E+00   1.00000E+00   1.00000E+00   1.00000E+00   1.00000E+00   0.00000E+00   0.00000E+00   0.00000E+00   1.00000E+00   1.00000E+00   1.00000E+00   1.00000E+00   1.00000E+00   0.00000E+00   0.00000E+00   0.00000E+00
    51     52     53   5.00000E-01   1.41372E+01  -1.90735E-06   3.00000E+00   0.00000E+00   6.00000E-02   3.00000E+00   0.00000E+00   6.00000E-02   0.00000E+00   0.00000E+00             F             F   0.00000E+00   0.00000E+00   0.00000E+00   1.00000E+00   1.00000E+00   1.00000E+00   1.00000E+00   1.00000E+00   0.00000E+00   0.00000E+00   0.00000E+00   1.00000E+00   1.00000E+00   1.00000E+00   1.00000E+00   1.00000E+00   0.00000E+00   0.00000E+00   0.00000E+00
    52     53     54   5.00000E-01   1.41372E+01   0.00000E+00   3.00000E+00   0.00000E+00   6.00000E-02   3.00000E+00   0.00000E+00   6.00000E-02   0.00000E+00   0.00000E+00             F             F   0.00000E+00   0.00000E+00   0.00000E+00   1.00000E+00   1.00000E+00   1.00000E+00   1.00000E+00   1.00000E+00   0.00000E+00   0.00000E+00   0.00000E+00   1.00000E+00   1.00000E+00   1.00000E+00   1.00000E+00   1.00000E+00   0.00000E+00   0.00000E+00   0.00000E+00
    53     54     55   5.00000E-01   1.41372E+01   0.00000E+00   3.00000E+00   0.00000E+00   6.00000E-02   3.00000E+00   0.00000E+00   6.00000E-02   0.00000E+00   0.00000E+00             F             F   0.00000E+00   0.00000E+00   0.00000E+00   1.00000E+00   1.00000E+00   1.00000E+00   1.00000E+00   1.00000E+00   0.00000E+00   0.00000E+00   0.00000E+00   1.00000E+00   1.00000E+00   1.00000E+00   1.00000E+00   1.00000E+00   0.00000E+00   0.00000E+00   0.00000E+00
    54     55     56   5.00000E-01   1.41372E+01   0.00000E+00   3.00000E+00   0.00000E+00   6.00000E-02   3.00000E+00   0.00000E+00   6.00000E-02   0.00000E+00   0.00000E+00             F             F   0.00000E+00   0.00000E+00   0.00000E+00   1.00000E+00   1.00000E+00   1.00000E+00   1.00000E+00   1.00000E+00   0.00000E+00   0.00000E+00   0.00000E+00   1.00000E+00   1.00000E+00   1.00000E+00   1.00000E+00   1.00000E+00   0.00000E+00   0.00000E+00   0.00000E+00
    55     56     57   5.00000E-01   1.41372E+01   0.00000E+00   3.00000E+00   0.00000E+00   6.00000E-02   3.00000E+00   0.00000E+00   6.00000E-02   0.00000E+00   0.00000E+00             F             F   0.00000E+00   0.00000E+00   0.00000E+00   1.00000E+00   1.00000E+00   1.00000E+00   1.00000E+00   1.00000E+00   0.00000E+00   0.00000E+00   0.00000E+00   1.00000E+00   1.00000E+00   1.00000E+00   1.00000E+00   1.00000E+00   0.00000E+00   0.00000E+00   0.00000E+00
    56     57     58   5.00000E-01   1.41372E+01   0.00000E+00   3.00000E+00   0.00000E+00   6.00000E-02   3.00000E+00   0.00000E+00   6.00000E-02   0.00000E+00   0.00000E+00             F             F   0.00000E+00   0.00000E+00   0.00000E+00   1.00000E+00   1.00000E+00   1.00000E+00   1.00000E+00   1.00000E+00   0.00000E+00   0.00000E+00   0.00000E+00   1.00000E+00   1.00000E+00   1.00000E+00   1.00000E+00   1.00000E+00   0.00000E+00   0.00000E+00   0.00000E+00
    57     58     59   5.00000E-01   1.41372E+01   1.90735E-06   3.00000E+00   0.00000E+00   6.00000E-02   3.00000E+00   0.00000E+00   6.00000E-02   0.00000E+00   0.00000E+00             F             F   0.00000E+00   0.00000E+00   0.00000E+00   1.00000E+00   1.00000E+00   1.00000E+00   1.00000E+00   1.00000E+00   0.00000E+00   0.00000E+00   0.00000E+00   1.00000E+00   1.00000E+00   1.00000E+00   1.00000E+00   1.00000E+00   0.00000E+00   0.00000E+00   0.00000E+00
    58     59     60   5.00000E-01   1.41372E+01   0.00000E+00   3.00000E+00   0.00000E+00   6.00000E-02   3.00000E+00   0.00000E+00   6.00000E-02   0.00000E+00   0.00000E+00             F             F   0.00000E+00   0.00000E+00   0.00000E+00   1.00000E+00   1.00000E+00   1.00000E+00   1.00000E+00   1.00000E+00   0.00000E+00   0.00000E+00   0.00000E+00   1.00000E+00   1.00000E+00   1.00000E+00   1.00000E+00   1.00000E+00   0.00000E+00   0.00000E+00   0.00000E+00
    59     60     61   5.00000E-01   1.41372E+01   0.00000E+00   3.00000E+00   0.00000E+00   6.00000E-02   3.00000E+00   0.00000E+00   6.00000E-02   0.00000E+00   0.00000E+00             F             F   0.00000E+00   0.00000E+00   0.00000E+00   1.00000E+00   1.00000E+00   1.00000E+00   1.00000E+00   1.00000E+00   0.00000E+00   0.00000E+00   0.00000E+00   1.00000E+00   1.00000E+00   1.00000E+00   1.00000E+00   1.00000E+00   0.00000E+00   0.00000E+00   0.00000E+00
    60     61     62   5.00000E-01   1.41372E+01   0.00000E+00   3.00000E+00   0.00000E+00   6.00000E-02   3.00000E+00   0.00000E+00   6.00000E-02   0.00000E+00   0.00000E+00             F             F   0.00000E+00   0.00000E+00   0.00000E+00   1.00000E+00   1.00000E+00   1.00000E+00   1.00000E+00   1.00000E+00   0.00000E+00   0.00000E+00   0.00000E+00   1.00000E+00   1.00000E+00   1.00000E+00   1.00000E+00   1.00000E+00   0.00000E+00   0.00000E+00   0.00000E+00
    61     62      2   5.00000E-01   1.41372E+01   0.00000E+00   3.00000E+00   0.00000E+00   6.00000E-02   3.00000E+00   0.00000E+00   6.00000E-02   0.00000E+00   0.00000E+00             F             F   0.00000E+00   0.00000E+00   0.00000E+00   1.00000E+00   1.00000E+00   1.00000E+00   1.00000E+00   1.00000E+00   0.00000E+00   0.00000E+00   0.00000E+00   1.00000E+00   1.00000E+00   1.00000E+00   1.00000E+00   1.00000E+00   0.00000E+00   0.00000E+00   1.00000E+00



Requested Member Outputs


   Label         Xi          Yi          Zi      InpMbrIndx   StartXi     StartYi     StartZi      EndXi       EndYi       EndZi        Loc    
    (-)          (m)         (m)         (m)        (-)         (m)         (m)         (m)         (m)         (m)         (m)         (-)    



 Requested Joint Outputs


   Label         Xi          Yi          Zi      InpJointID
    (-)          (m)         (m)         (m)        (-)    



 Wave Kinematics


       m              k          Omega[m]       Direction    REAL(DFT{WaveElev})  IMAG(DFT{WaveElev})
      (-)           (1/m)        (rad/s)          (deg)             (m)                  (m)         
      -7259     1.60983E+01    -1.25646E+01     0.00000E+00     0.00000E+00          0.00000E+00
      -7258     1.60938E+01    -1.25629E+01     0.00000E+00     0.00000E+00          0.00000E+00
      -7257     1.60894E+01    -1.25612E+01     0.00000E+00     0.00000E+00          0.00000E+00
      -7256     1.60850E+01    -1.25594E+01     0.00000E+00     0.00000E+00          0.00000E+00
      -7255     1.60805E+01    -1.25577E+01     0.00000E+00     0.00000E+00          0.00000E+00
      -7254     1.60761E+01    -1.25560E+01     0.00000E+00     0.00000E+00          0.00000E+00
      -7253     1.60717E+01    -1.25543E+01     0.00000E+00     0.00000E+00          0.00000E+00
      -7252     1.60672E+01    -1.25525E+01     0.00000E+00     0.00000E+00          0.00000E+00
      -7251     1.60628E+01    -1.25508E+01     0.00000E+00     0.00000E+00          0.00000E+00
      -7250     1.60584E+01    -1.25491E+01     0.00000E+00     0.00000E+00          0.00000E+00
      -7249     1.60540E+01    -1.25473E+01     0.00000E+00     0.00000E+00          0.00000E+00
      -7248     1.60495E+01    -1.25456E+01     0.00000E+00     0.00000E+00          0.00000E+00
      -7247     1.60451E+01    -1.25439E+01     0.00000E+00     0.00000E+00          0.00000E+00
      -7246     1.60407E+01    -1.25421E+01     0.00000E+00     0.00000E+00          0.00000E+00
      -7245     1.60362E+01    -1.25404E+01     0.00000E+00     0.00000E+00          0.00000E+00
      -7244     1.60318E+01    -1.25387E+01     0.00000E+00     0.00000E+00          0.00000E+00
      -7243     1.60274E+01    -1.25369E+01     0.00000E+00     0.00000E+00          0.00000E+00
      -7242     1.60230E+01    -1.25352E+01     0.00000E+00     0.00000E+00          0.00000E+00
      -7241     1.60185E+01    -1.25335E+01     0.00000E+00     0.00000E+00          0.00000E+00
      -7240     1.60141E+01    -1.25318E+01     0.00000E+00     0.00000E+00          0.00000E+00
      -7239     1.60097E+01    -1.25300E+01     0.00000E+00     0.00000E+00          0.00000E+00
      -7238     1.60053E+01    -1.25283E+01     0.00000E+00     0.00000E+00          0.00000E+00
      -7237     1.60008E+01    -1.25266E+01     0.00000E+00     0.00000E+00          0.00000E+00
      -7236     1.59964E+01    -1.25248E+01     0.00000E+00     0.00000E+00          0.00000E+00
      -7235     1.59920E+01    -1.25231E+01     0.00000E+00     0.00000E+00          0.00000E+00
      -7234     1.59876E+01    -1.25214E+01     0.00000E+00     0.00000E+00          0.00000E+00
      -7233     1.59832E+01    -1.25196E+01     0.00000E+00     0.00000E+00          0.00000E+00
      -7232     1.59787E+01    -1.25179E+01     0.00000E+00     0.00000E+00          0.00000E+00
      -7231     1.59743E+01    -1.25162E+01     0.00000E+00     0.00000E+00          0.00000E+00
      -7230     1.59699E+01    -1.25144E+01     0.00000E+00     0.00000E+00          0.00000E+00
      -7229     1.59655E+01    -1.25127E+01     0.00000E+00     0.00000E+00          0.00000E+00
      -7228     1.59611E+01    -1.25110E+01     0.00000E+00     0.00000E+00          0.00000E+00
      -7227     1.59567E+01    -1.25093E+01     0.00000E+00     0.00000E+00          0.00000E+00
      -7226     1.59522E+01    -1.25075E+01     0.00000E+00     0.00000E+00          0.00000E+00
      -7225     1.59478E+01    -1.25058E+01     0.00000E+00     0.00000E+00          0.00000E+00
      -7224     1.59434E+01    -1.25041E+01     0.00000E+00     0.00000E+00          0.00000E+00
      -7223     1.59390E+01    -1.25023E+01     0.00000E+00     0.00000E+00          0.00000E+00
      -7222     1.59346E+01    -1.25006E+01     0.00000E+00     0.00000E+00          0.00000E+00
      -7221     1.59302E+01    -1.24989E+01     0.00000E+00     0.00000E+00          0.00000E+00
      -7220     1.59258E+01    -1.24971E+01     0.00000E+00     0.00000E+00          0.00000E+00
      -7219     1.59214E+01    -1.24954E+01     0.00000E+00     0.00000E+00          0.00000E+00
      -7218     1.59169E+01    -1.24937E+01     0.00000E+00     0.00000E+00          0.00000E+00
      -7217     1.59125E+01    -1.24919E+01     0.00000E+00     0.00000E+00          0.00000E+00
      -7216     1.59081E+01    -1.24902E+01     0.00000E+00     0.00000E+00          0.00000E+00
      -7215     1.59037E+01    -1.24885E+01     0.00000E+00     0.00000E+00          0.00000E+00
      -7214     1.58993E+01    -1.24867E+01     0.00000E+00     0.00000E+00          0.00000E+00
      -7213     1.58949E+01    -1.24850E+01     0.00000E+00     0.00000E+00          0.00000E+00
      -7212     1.58905E+01    -1.24833E+01     0.00000E+00     0.00000E+00          0.00000E+00
      -7211     1.58861E+01    -1.24816E+01     0.00000E+00     0.00000E+00          0.00000E+00
      -7210     1.58817E+01    -1.24798E+01     0.00000E+00     0.00000E+00          0.00000E+00
      -7209     1.58773E+01    -1.24781E+01     0.00000E+00     0.00000E+00          0.00000E+00
      -7208     1.58729E+01    -1.24764E+01     0.00000E+00     0.00000E+00          0.00000E+00
      -7207     1.58685E+01    -1.24746E+01     0.00000E+00     0.00000E+00          0.00000E+00
      -7206     1.58641E+01    -1.24729E+01     0.00000E+00     0.00000E+00          0.00000E+00
      -7205     1.58597E+01    -1.24712E+01     0.00000E+00     0.00000E+00          0.00000E+00
      -7204     1.58553E+01    -1.24694E+01     0.00000E+00     0.00000E+00          0.00000E+00
      -7203     1.58509E+01    -1.24677E+01     0.00000E+00     0.00000E+00          0.00000E+00
      -7202     1.58465E+01    -1.24660E+01     0.00000E+00     0.00000E+00          0.00000E+00
      -7201     1.58421E+01    -1.24642E+01     0.00000E+00     0.00000E+00          0.00000E+00
      -7200     1.58377E+01    -1.24625E+01     0.00000E+00     0.00000E+00          0.00000E+00
      -7199     1.58333E+01    -1.24608E+01     0.00000E+00     0.00000E+00          0.00000E+00
      -7198     1.58289E+01    -1.24591E+01     0.00000E+00     0.00000E+00          0.00000E+00
      -7197     1.58245E+01    -1.24573E+01     0.00000E+00     0.00000E+00          0.00000E+00
      -7196     1.58201E+01    -1.24556E+01     0.00000E+00     0.00000E+00          0.00000E+00
      -7195     1.58157E+01    -1.24539E+01     0.00000E+00     0.00000E+00          0.00000E+00
      -7194     1.58113E+01    -1.24521E+01     0.00000E+00     0.00000E+00          0.00000E+00
      -7193     1.58069E+01    -1.24504E+01     0.00000E+00     0.00000E+00          0.00000E+00
      -7192     1.58025E+01    -1.24487E+01     0.00000E+00     0.00000E+00          0.00000E+00
      -7191     1.57981E+01    -1.24469E+01     0.00000E+00     0.00000E+00          0.00000E+00
      -7190     1.57937E+01    -1.24452E+01     0.00000E+00     0.00000E+00          0.00000E+00
      -7189     1.57893E+01    -1.24435E+01     0.00000E+00     0.00000E+00          0.00000E+00
      -7188     1.57849E+01    -1.24417E+01     0.00000E+00     0.00000E+00          0.00000E+00
      -7187     1.57805E+01    -1.24400E+01     0.00000E+00     0.00000E+00          0.00000E+00
      -7186     1.57761E+01    -1.24383E+01     0.00000E+00     0.00000E+00          0.00000E+00
      -7185     1.57717E+01    -1.24366E+01     0.00000E+00     0.00000E+00          0.00000E+00
      -7184     1.57673E+01    -1.24348E+01     0.00000E+00     0.00000E+00          0.00000E+00
      -7183     1.57630E+01    -1.24331E+01     0.00000E+00     0.00000E+00          0.00000E+00
      -7182     1.57586E+01    -1.24314E+01     0.00000E+00     0.00000E+00          0.00000E+00
      -7181     1.57542E+01    -1.24296E+01     0.00000E+00     0.00000E+00          0.00000E+00
      -7180     1.57498E+01    -1.24279E+01     0.00000E+00     0.00000E+00          0.00000E+00
      -7179     1.57454E+01    -1.24262E+01     0.00000E+00     0.00000E+00          0.00000E+00
      -7178     1.57410E+01    -1.24244E+01     0.00000E+00     0.00000E+00          0.00000E+00
      -7177     1.57366E+01    -1.24227E+01     0.00000E+00     0.00000E+00          0.00000E+00
      -7176     1.57322E+01    -1.24210E+01     0.00000E+00     0.00000E+00          0.00000E+00
      -7175     1.57279E+01    -1.24192E+01     0.00000E+00     0.00000E+00          0.00000E+00
      -7174     1.57235E+01    -1.24175E+01     0.00000E+00     0.00000E+00          0.00000E+00
      -7173     1.57191E+01    -1.24158E+01     0.00000E+00     0.00000E+00          0.00000E+00
      -7172     1.57147E+01    -1.24141E+01     0.00000E+00     0.00000E+00          0.00000E+00
      -7171     1.57103E+01    -1.24123E+01     0.00000E+00     0.00000E+00          0.00000E+00
      -7170     1.57059E+01    -1.24106E+01     0.00000E+00     0.00000E+00          0.00000E+00
      -7169     1.57016E+01    -1.24089E+01     0.00000E+00     0.00000E+00          0.00000E+00
      -7168     1.56972E+01    -1.24071E+01     0.00000E+00     0.00000E+00          0.00000E+00
      -7167     1.56928E+01    -1.24054E+01     0.00000E+00     0.00000E+00          0.00000E+00
      -7166     1.56884E+01    -1.24037E+01     0.00000E+00     0.00000E+00          0.00000E+00
      -7165     1.56840E+01    -1.24019E+01     0.00000E+00     0.00000E+00          0.00000E+00
      -7164     1.56797E+01    -1.24002E+01     0.00000E+00     0.00000E+00          0.00000E+00
      -7163     1.56753E+01    -1.23985E+01     0.00000E+00     0.00000E+00          0.00000E+00
      -7162     1.56709E+01    -1.23967E+01     0.00000E+00     0.00000E+00          0.00000E+00
      -7161     1.56665E+01    -1.23950E+01     0.00000E+00     0.00000E+00          0.00000E+00
      -7160     1.56622E+01    -1.23933E+01     0.00000E+00     0.00000E+00          0.00000E+00
      -7159     1.56578E+01    -1.23916E+01     0.00000E+00     0.00000E+00          0.00000E+00
      -7158     1.56534E+01    -1.23898E+01     0.00000E+00     0.00000E+00          0.00000E+00
      -7157     1.56490E+01    -1.23881E+01     0.00000E+00     0.00000E+00          0.00000E+00
      -7156     1.56447E+01    -1.23864E+01     0.00000E+00     0.00000E+00          0.00000E+00
      -7155     1.56403E+01    -1.23846E+01     0.00000E+00     0.00000E+00          0.00000E+00
      -7154     1.56359E+01    -1.23829E+01     0.00000E+00     0.00000E+00          0.00000E+00
      -7153     1.56316E+01    -1.23812E+01     0.00000E+00     0.00000E+00          0.00000E+00
      -7152     1.56272E+01    -1.23794E+01     0.00000E+00     0.00000E+00          0.00000E+00
      -7151     1.56228E+01    -1.23777E+01     0.00000E+00     0.00000E+00          0.00000E+00
      -7150     1.56184E+01    -1.23760E+01     0.00000E+00     0.00000E+00          0.00000E+00
      -7149     1.56141E+01    -1.23742E+01     0.00000E+00     0.00000E+00          0.00000E+00
      -7148     1.56097E+01    -1.23725E+01     0.00000E+00     0.00000E+00          0.00000E+00
      -7147     1.56053E+01    -1.23708E+01     0.00000E+00     0.00000E+00          0.00000E+00
      -7146     1.56010E+01    -1.23690E+01     0.00000E+00     0.00000E+00          0.00000E+00
      -7145     1.55966E+01    -1.23673E+01     0.00000E+00     0.00000E+00          0.00000E+00
      -7144     1.55922E+01    -1.23656E+01     0.00000E+00     0.00000E+00          0.00000E+00
      -7143     1.55879E+01    -1.23639E+01     0.00000E+00     0.00000E+00          0.00000E+00
      -7142     1.55835E+01    -1.23621E+01     0.00000E+00     0.00000E+00          0.00000E+00
      -7141     1.55792E+01    -1.23604E+01     0.00000E+00     0.00000E+00          0.00000E+00
      -7140     1.55748E+01    -1.23587E+01     0.00000E+00     0.00000E+00          0.00000E+00
      -7139     1.55704E+01    -1.23569E+01     0.00000E+00     0.00000E+00          0.00000E+00
      -7138     1.55661E+01    -1.23552E+01     0.00000E+00     0.00000E+00          0.00000E+00
      -7137     1.55617E+01    -1.23535E+01     0.00000E+00     0.00000E+00          0.00000E+00
      -7136     1.55573E+01    -1.23517E+01     0.00000E+00     0.00000E+00          0.00000E+00
      -7135     1.55530E+01    -1.23500E+01     0.00000E+00     0.00000E+00          0.00000E+00
      -7134     1.55486E+01    -1.23483E+01     0.00000E+00     0.00000E+00          0.00000E+00
      -7133     1.55443E+01    -1.23465E+01     0.00000E+00     0.00000E+00          0.00000E+00
      -7132     1.55399E+01    -1.23448E+01     0.00000E+00     0.00000E+00          0.00000E+00
      -7131     1.55356E+01    -1.23431E+01     0.00000E+00     0.00000E+00          0.00000E+00
      -7130     1.55312E+01    -1.23414E+01     0.00000E+00     0.00000E+00          0.00000E+00
      -7129     1.55268E+01    -1.23396E+01     0.00000E+00     0.00000E+00          0.00000E+00
      -7128     1.55225E+01    -1.23379E+01     0.00000E+00     0.00000E+00          0.00000E+00
      -7127     1.55181E+01    -1.23362E+01     0.00000E+00     0.00000E+00          0.00000E+00
      -7126     1.55138E+01    -1.23344E+01     0.00000E+00     0.00000E+00          0.00000E+00
      -7125     1.55094E+01    -1.23327E+01     0.00000E+00     0.00000E+00          0.00000E+00
      -7124     1.55051E+01    -1.23310E+01     0.00000E+00     0.00000E+00          0.00000E+00
      -7123     1.55007E+01    -1.23292E+01     0.00000E+00     0.00000E+00          0.00000E+00
      -7122     1.54964E+01    -1.23275E+01     0.00000E+00     0.00000E+00          0.00000E+00
      -7121     1.54920E+01    -1.23258E+01     0.00000E+00     0.00000E+00          0.00000E+00
      -7120     1.54877E+01    -1.23240E+01     0.00000E+00     0.00000E+00          0.00000E+00
      -7119     1.54833E+01    -1.23223E+01     0.00000E+00     0.00000E+00          0.00000E+00
      -7118     1.54790E+01    -1.23206E+01     0.00000E+00     0.00000E+00          0.00000E+00
      -7117     1.54746E+01    -1.23189E+01     0.00000E+00     0.00000E+00          0.00000E+00
      -7116     1.54703E+01    -1.23171E+01     0.00000E+00     0.00000E+00          0.00000E+00
      -7115     1.54659E+01    -1.23154E+01     0.00000E+00     0.00000E+00          0.00000E+00
      -7114     1.54616E+01    -1.23137E+01     0.00000E+00     0.00000E+00          0.00000E+00
      -7113     1.54572E+01    -1.23119E+01     0.00000E+00     0.00000E+00          0.00000E+00
      -7112     1.54529E+01    -1.23102E+01     0.00000E+00     0.00000E+00          0.00000E+00
      -7111     1.54485E+01    -1.23085E+01     0.00000E+00     0.00000E+00          0.00000E+00
      -7110     1.54442E+01    -1.23067E+01     0.00000E+00     0.00000E+00          0.00000E+00
      -7109     1.54398E+01    -1.23050E+01     0.00000E+00     0.00000E+00          0.00000E+00
      -7108     1.54355E+01    -1.23033E+01     0.00000E+00     0.00000E+00          0.00000E+00
      -7107     1.54312E+01    -1.23015E+01     0.00000E+00     0.00000E+00          0.00000E+00
      -7106     1.54268E+01    -1.22998E+01     0.00000E+00     0.00000E+00          0.00000E+00
      -7105     1.54225E+01    -1.22981E+01     0.00000E+00     0.00000E+00          0.00000E+00
      -7104     1.54181E+01    -1.22964E+01     0.00000E+00     0.00000E+00          0.00000E+00
      -7103     1.54138E+01    -1.22946E+01     0.00000E+00     0.00000E+00          0.00000E+00
      -7102     1.54095E+01    -1.22929E+01     0.00000E+00     0.00000E+00          0.00000E+00
      -7101     1.54051E+01    -1.22912E+01     0.00000E+00     0.00000E+00          0.00000E+00
      -7100     1.54008E+01    -1.22894E+01     0.00000E+00     0.00000E+00          0.00000E+00
      -7099     1.53964E+01    -1.22877E+01     0.00000E+00     0.00000E+00          0.00000E+00
      -7098     1.53921E+01    -1.22860E+01     0.00000E+00     0.00000E+00          0.00000E+00
      -7097     1.53878E+01    -1.22842E+01     0.00000E+00     0.00000E+00          0.00000E+00
      -7096     1.53834E+01    -1.22825E+01     0.00000E+00     0.00000E+00          0.00000E+00
      -7095     1.53791E+01    -1.22808E+01     0.00000E+00     0.00000E+00          0.00000E+00
      -7094     1.53748E+01    -1.22790E+01     0.00000E+00     0.00000E+00          0.00000E+00
      -7093     1.53704E+01    -1.22773E+01     0.00000E+00     0.00000E+00          0.00000E+00
      -7092     1.53661E+01    -1.22756E+01     0.00000E+00     0.00000E+00          0.00000E+00
      -7091     1.53618E+01    -1.22738E+01     0.00000E+00     0.00000E+00          0.00000E+00
      -7090     1.53574E+01    -1.22721E+01     0.00000E+00     0.00000E+00          0.00000E+00
      -7089     1.53531E+01    -1.22704E+01     0.00000E+00     0.00000E+00          0.00000E+00
      -7088     1.53488E+01    -1.22687E+01     0.00000E+00     0.00000E+00          0.00000E+00
      -7087     1.53444E+01    -1.22669E+01     0.00000E+00     0.00000E+00          0.00000E+00
      -7086     1.53401E+01    -1.22652E+01     0.00000E+00     0.00000E+00          0.00000E+00
      -7085     1.53358E+01    -1.22635E+01     0.00000E+00     0.00000E+00          0.00000E+00
      -7084     1.53314E+01    -1.22617E+01     0.00000E+00     0.00000E+00          0.00000E+00
      -7083     1.53271E+01    -1.22600E+01     0.00000E+00     0.00000E+00          0.00000E+00
      -7082     1.53228E+01    -1.22583E+01     0.00000E+00     0.00000E+00          0.00000E+00
      -7081     1.53185E+01    -1.22565E+01     0.00000E+00     0.00000E+00          0.00000E+00
      -7080     1.53141E+01    -1.22548E+01     0.00000E+00     0.00000E+00          0.00000E+00
      -7079     1.53098E+01    -1.22531E+01     0.00000E+00     0.00000E+00          0.00000E+00
      -7078     1.53055E+01    -1.22513E+01     0.00000E+00     0.00000E+00          0.00000E+00
      -7077     1.53012E+01    -1.22496E+01     0.00000E+00     0.00000E+00          0.00000E+00
      -7076     1.52968E+01    -1.22479E+01     0.00000E+00     0.00000E+00          0.00000E+00
      -7075     1.52925E+01    -1.22462E+01     0.00000E+00     0.00000E+00          0.00000E+00
      -7074     1.52882E+01    -1.22444E+01     0.00000E+00     0.00000E+00          0.00000E+00
      -7073     1.52839E+01    -1.22427E+01     0.00000E+00     0.00000E+00          0.00000E+00
      -7072     1.52795E+01    -1.22410E+01     0.00000E+00     0.00000E+00          0.00000E+00
      -7071     1.52752E+01    -1.22392E+01     0.00000E+00     0.00000E+00          0.00000E+00
      -7070     1.52709E+01    -1.22375E+01     0.00000E+00     0.00000E+00          0.00000E+00
      -7069     1.52666E+01    -1.22358E+01     0.00000E+00     0.00000E+00          0.00000E+00
      -7068     1.52623E+01    -1.22340E+01     0.00000E+00     0.00000E+00          0.00000E+00
      -7067     1.52579E+01    -1.22323E+01     0.00000E+00     0.00000E+00          0.00000E+00
      -7066     1.52536E+01    -1.22306E+01     0.00000E+00     0.00000E+00          0.00000E+00
      -7065     1.52493E+01    -1.22288E+01     0.00000E+00     0.00000E+00          0.00000E+00
      -7064     1.52450E+01    -1.22271E+01     0.00000E+00     0.00000E+00          0.00000E+00
      -7063     1.52407E+01    -1.22254E+01     0.00000E+00     0.00000E+00          0.00000E+00
      -7062     1.52364E+01    -1.22237E+01     0.00000E+00     0.00000E+00          0.00000E+00
      -7061     1.52320E+01    -1.22219E+01     0.00000E+00     0.00000E+00          0.00000E+00
      -7060     1.52277E+01    -1.22202E+01     0.00000E+00     0.00000E+00          0.00000E+00
      -7059     1.52234E+01    -1.22185E+01     0.00000E+00     0.00000E+00          0.00000E+00
      -7058     1.52191E+01    -1.22167E+01     0.00000E+00     0.00000E+00          0.00000E+00
      -7057     1.52148E+01    -1.22150E+01     0.00000E+00     0.00000E+00          0.00000E+00
      -7056     1.52105E+01    -1.22133E+01     0.00000E+00     0.00000E+00          0.00000E+00
      -7055     1.52062E+01    -1.22115E+01     0.00000E+00     0.00000E+00          0.00000E+00
      -7054     1.52019E+01    -1.22098E+01     0.00000E+00     0.00000E+00          0.00000E+00
      -7053     1.51976E+01    -1.22081E+01     0.00000E+00     0.00000E+00          0.00000E+00
      -7052     1.51932E+01    -1.22063E+01     0.00000E+00     0.00000E+00          0.00000E+00
      -7051     1.51889E+01    -1.22046E+01     0.00000E+00     0.00000E+00          0.00000E+00
      -7050     1.51846E+01    -1.22029E+01     0.00000E+00     0.00000E+00          0.00000E+00
      -7049     1.51803E+01    -1.22011E+01     0.00000E+00     0.00000E+00          0.00000E+00
      -7048     1.51760E+01    -1.21994E+01     0.00000E+00     0.00000E+00          0.00000E+00
      -7047     1.51717E+01    -1.21977E+01     0.00000E+00     0.00000E+00          0.00000E+00
      -7046     1.51674E+01    -1.21960E+01     0.00000E+00     0.00000E+00          0.00000E+00
      -7045     1.51631E+01    -1.21942E+01     0.00000E+00     0.00000E+00          0.00000E+00
      -7044     1.51588E+01    -1.21925E+01     0.00000E+00     0.00000E+00          0.00000E+00
      -7043     1.51545E+01    -1.21908E+01     0.00000E+00     0.00000E+00          0.00000E+00
      -7042     1.51502E+01    -1.21890E+01     0.00000E+00     0.00000E+00          0.00000E+00
      -7041     1.51459E+01    -1.21873E+01     0.00000E+00     0.00000E+00          0.00000E+00
      -7040     1.51416E+01    -1.21856E+01     0.00000E+00     0.00000E+00          0.00000E+00
      -7039     1.51373E+01    -1.21838E+01     0.00000E+00     0.00000E+00          0.00000E+00
      -7038     1.51330E+01    -1.21821E+01     0.00000E+00     0.00000E+00          0.00000E+00
      -7037     1.51287E+01    -1.21804E+01     0.00000E+00     0.00000E+00          0.00000E+00
      -7036     1.51244E+01    -1.21786E+01     0.00000E+00     0.00000E+00          0.00000E+00
      -7035     1.51201E+01    -1.21769E+01     0.00000E+00     0.00000E+00          0.00000E+00
      -7034     1.51158E+01    -1.21752E+01     0.00000E+00     0.00000E+00          0.00000E+00
      -7033     1.51115E+01    -1.21735E+01     0.00000E+00     0.00000E+00          0.00000E+00
      -7032     1.51072E+01    -1.21717E+01     0.00000E+00     0.00000E+00          0.00000E+00
      -7031     1.51029E+01    -1.21700E+01     0.00000E+00     0.00000E+00          0.00000E+00
      -7030     1.50986E+01    -1.21683E+01     0.00000E+00     0.00000E+00          0.00000E+00
      -7029     1.50943E+01    -1.21665E+01     0.00000E+00     0.00000E+00          0.00000E+00
      -7028     1.50900E+01    -1.21648E+01     0.00000E+00     0.00000E+00          0.00000E+00
      -7027     1.50857E+01    -1.21631E+01     0.00000E+00     0.00000E+00          0.00000E+00
      -7026     1.50814E+01    -1.21613E+01     0.00000E+00     0.00000E+00          0.00000E+00
      -7025     1.50771E+01    -1.21596E+01     0.00000E+00     0.00000E+00          0.00000E+00
      -7024     1.50728E+01    -1.21579E+01     0.00000E+00     0.00000E+00          0.00000E+00
      -7023     1.50685E+01    -1.21561E+01     0.00000E+00     0.00000E+00          0.00000E+00
      -7022     1.50642E+01    -1.21544E+01     0.00000E+00     0.00000E+00          0.00000E+00
      -7021     1.50600E+01    -1.21527E+01     0.00000E+00     0.00000E+00          0.00000E+00
      -7020     1.50557E+01    -1.21510E+01     0.00000E+00     0.00000E+00          0.00000E+00
      -7019     1.50514E+01    -1.21492E+01     0.00000E+00     0.00000E+00          0.00000E+00
      -7018     1.50471E+01    -1.21475E+01     0.00000E+00     0.00000E+00          0.00000E+00
      -7017     1.50428E+01    -1.21458E+01     0.00000E+00     0.00000E+00          0.00000E+00
      -7016     1.50385E+01    -1.21440E+01     0.00000E+00     0.00000E+00          0.00000E+00
      -7015     1.50342E+01    -1.21423E+01     0.00000E+00     0.00000E+00          0.00000E+00
      -7014     1.50299E+01    -1.21406E+01     0.00000E+00     0.00000E+00          0.00000E+00
      -7013     1.50257E+01    -1.21388E+01     0.00000E+00     0.00000E+00          0.00000E+00
      -7012     1.50214E+01    -1.21371E+01     0.00000E+00     0.00000E+00          0.00000E+00
      -7011     1.50171E+01    -1.21354E+01     0.00000E+00     0.00000E+00          0.00000E+00
      -7010     1.50128E+01    -1.21336E+01     0.00000E+00     0.00000E+00          0.00000E+00
      -7009     1.50085E+01    -1.21319E+01     0.00000E+00     0.00000E+00          0.00000E+00
      -7008     1.50042E+01    -1.21302E+01     0.00000E+00     0.00000E+00          0.00000E+00
      -7007     1.50000E+01    -1.21285E+01     0.00000E+00     0.00000E+00          0.00000E+00
      -7006     1.49957E+01    -1.21267E+01     0.00000E+00     0.00000E+00          0.00000E+00
      -7005     1.49914E+01    -1.21250E+01     0.00000E+00     0.00000E+00          0.00000E+00
      -7004     1.49871E+01    -1.21233E+01     0.00000E+00     0.00000E+00          0.00000E+00
      -7003     1.49828E+01    -1.21215E+01     0.00000E+00     0.00000E+00          0.00000E+00
      -7002     1.49786E+01    -1.21198E+01     0.00000E+00     0.00000E+00          0.00000E+00
      -7001     1.49743E+01    -1.21181E+01     0.00000E+00     0.00000E+00          0.00000E+00
      -7000     1.49700E+01    -1.21163E+01     0.00000E+00     0.00000E+00          0.00000E+00
      -6999     1.49657E+01    -1.21146E+01     0.00000E+00     0.00000E+00          0.00000E+00
      -6998     1.49615E+01    -1.21129E+01     0.00000E+00     0.00000E+00          0.00000E+00
      -6997     1.49572E+01    -1.21111E+01     0.00000E+00     0.00000E+00          0.00000E+00
      -6996     1.49529E+01    -1.21094E+01     0.00000E+00     0.00000E+00          0.00000E+00
      -6995     1.49486E+01    -1.21077E+01     0.00000E+00     0.00000E+00          0.00000E+00
      -6994     1.49444E+01    -1.21060E+01     0.00000E+00     0.00000E+00          0.00000E+00
      -6993     1.49401E+01    -1.21042E+01     0.00000E+00     0.00000E+00          0.00000E+00
      -6992     1.49358E+01    -1.21025E+01     0.00000E+00     0.00000E+00          0.00000E+00
      -6991     1.49315E+01    -1.21008E+01     0.00000E+00     0.00000E+00          0.00000E+00
      -6990     1.49273E+01    -1.20990E+01     0.00000E+00     0.00000E+00          0.00000E+00
      -6989     1.49230E+01    -1.20973E+01     0.00000E+00     0.00000E+00          0.00000E+00
[...]
       7058     1.52191E+01     1.22167E+01     0.00000E+00     0.00000E+00          0.00000E+00
       7059     1.52234E+01     1.22185E+01     0.00000E+00     0.00000E+00          0.00000E+00
       7060     1.52277E+01     1.22202E+01     0.00000E+00     0.00000E+00          0.00000E+00
       7061     1.52320E+01     1.22219E+01     0.00000E+00     0.00000E+00          0.00000E+00
       7062     1.52364E+01     1.22237E+01     0.00000E+00     0.00000E+00          0.00000E+00
       7063     1.52407E+01     1.22254E+01     0.00000E+00     0.00000E+00          0.00000E+00
       7064     1.52450E+01     1.22271E+01     0.00000E+00     0.00000E+00          0.00000E+00
       7065     1.52493E+01     1.22288E+01     0.00000E+00     0.00000E+00          0.00000E+00
       7066     1.52536E+01     1.22306E+01     0.00000E+00     0.00000E+00          0.00000E+00
       7067     1.52579E+01     1.22323E+01     0.00000E+00     0.00000E+00          0.00000E+00
       7068     1.52623E+01     1.22340E+01     0.00000E+00     0.00000E+00          0.00000E+00
       7069     1.52666E+01     1.22358E+01     0.00000E+00     0.00000E+00          0.00000E+00
       7070     1.52709E+01     1.22375E+01     0.00000E+00     0.00000E+00          0.00000E+00
       7071     1.52752E+01     1.22392E+01     0.00000E+00     0.00000E+00          0.00000E+00
       7072     1.52795E+01     1.22410E+01     0.00000E+00     0.00000E+00          0.00000E+00
       7073     1.52839E+01     1.22427E+01     0.00000E+00     0.00000E+00          0.00000E+00
       7074     1.52882E+01     1.22444E+01     0.00000E+00     0.00000E+00          0.00000E+00
       7075     1.52925E+01     1.22462E+01     0.00000E+00     0.00000E+00          0.00000E+00
       7076     1.52968E+01     1.22479E+01     0.00000E+00     0.00000E+00          0.00000E+00
       7077     1.53012E+01     1.22496E+01     0.00000E+00     0.00000E+00          0.00000E+00
       7078     1.53055E+01     1.22513E+01     0.00000E+00     0.00000E+00          0.00000E+00
       7079     1.53098E+01     1.22531E+01     0.00000E+00     0.00000E+00          0.00000E+00
       7080     1.53141E+01     1.22548E+01     0.00000E+00     0.00000E+00          0.00000E+00
       7081     1.53185E+01     1.22565E+01     0.00000E+00     0.00000E+00          0.00000E+00
       7082     1.53228E+01     1.22583E+01     0.00000E+00     0.00000E+00          0.00000E+00
       7083     1.53271E+01     1.22600E+01     0.00000E+00     0.00000E+00          0.00000E+00
       7084     1.53314E+01     1.22617E+01     0.00000E+00     0.00000E+00          0.00000E+00
       7085     1.53358E+01     1.22635E+01     0.00000E+00     0.00000E+00          0.00000E+00
       7086     1.53401E+01     1.22652E+01     0.00000E+00     0.00000E+00          0.00000E+00
       7087     1.53444E+01     1.22669E+01     0.00000E+00     0.00000E+00          0.00000E+00
       7088     1.53488E+01     1.22687E+01     0.00000E+00     0.00000E+00          0.00000E+00
       7089     1.53531E+01     1.22704E+01     0.00000E+00     0.00000E+00          0.00000E+00
       7090     1.53574E+01     1.22721E+01     0.00000E+00     0.00000E+00          0.00000E+00
       7091     1.53618E+01     1.22738E+01     0.00000E+00     0.00000E+00          0.00000E+00
       7092     1.53661E+01     1.22756E+01     0.00000E+00     0.00000E+00          0.00000E+00
       7093     1.53704E+01     1.22773E+01     0.00000E+00     0.00000E+00          0.00000E+00
       7094     1.53748E+01     1.22790E+01     0.00000E+00     0.00000E+00          0.00000E+00
       7095     1.53791E+01     1.22808E+01     0.00000E+00     0.00000E+00          0.00000E+00
       7096     1.53834E+01     1.22825E+01     0.00000E+00     0.00000E+00          0.00000E+00
       7097     1.53878E+01     1.22842E+01     0.00000E+00     0.00000E+00          0.00000E+00
       7098     1.53921E+01     1.22860E+01     0.00000E+00     0.00000E+00          0.00000E+00
       7099     1.53964E+01     1.22877E+01     0.00000E+00     0.00000E+00          0.00000E+00
       7100     1.54008E+01     1.22894E+01     0.00000E+00     0.00000E+00          0.00000E+00
       7101     1.54051E+01     1.22912E+01     0.00000E+00     0.00000E+00          0.00000E+00
       7102     1.54095E+01     1.22929E+01     0.00000E+00     0.00000E+00          0.00000E+00
       7103     1.54138E+01     1.22946E+01     0.00000E+00     0.00000E+00          0.00000E+00
       7104     1.54181E+01     1.22964E+01     0.00000E+00     0.00000E+00          0.00000E+00
       7105     1.54225E+01     1.22981E+01     0.00000E+00     0.00000E+00          0.00000E+00
       7106     1.54268E+01     1.22998E+01     0.00000E+00     0.00000E+00          0.00000E+00
       7107     1.54312E+01     1.23015E+01     0.00000E+00     0.00000E+00          0.00000E+00
       7108     1.54355E+01     1.23033E+01     0.00000E+00     0.00000E+00          0.00000E+00
       7109     1.54398E+01     1.23050E+01     0.00000E+00     0.00000E+00          0.00000E+00
       7110     1.54442E+01     1.23067E+01     0.00000E+00     0.00000E+00          0.00000E+00
       7111     1.54485E+01     1.23085E+01     0.00000E+00     0.00000E+00          0.00000E+00
       7112     1.54529E+01     1.23102E+01     0.00000E+00     0.00000E+00          0.00000E+00
       7113     1.54572E+01     1.23119E+01     0.00000E+00     0.00000E+00          0.00000E+00
       7114     1.54616E+01     1.23137E+01     0.00000E+00     0.00000E+00          0.00000E+00
       7115     1.54659E+01     1.23154E+01     0.00000E+00     0.00000E+00          0.00000E+00
       7116     1.54703E+01     1.23171E+01     0.00000E+00     0.00000E+00          0.00000E+00
       7117     1.54746E+01     1.23189E+01     0.00000E+00     0.00000E+00          0.00000E+00
       7118     1.54790E+01     1.23206E+01     0.00000E+00     0.00000E+00          0.00000E+00
       7119     1.54833E+01     1.23223E+01     0.00000E+00     0.00000E+00          0.00000E+00
       7120     1.54877E+01     1.23240E+01     0.00000E+00     0.00000E+00          0.00000E+00
       7121     1.54920E+01     1.23258E+01     0.00000E+00     0.00000E+00          0.00000E+00
       7122     1.54964E+01     1.23275E+01     0.00000E+00     0.00000E+00          0.00000E+00
       7123     1.55007E+01     1.23292E+01     0.00000E+00     0.00000E+00          0.00000E+00
       7124     1.55051E+01     1.23310E+01     0.00000E+00     0.00000E+00          0.00000E+00
       7125     1.55094E+01     1.23327E+01     0.00000E+00     0.00000E+00          0.00000E+00
       7126     1.55138E+01     1.23344E+01     0.00000E+00     0.00000E+00          0.00000E+00
       7127     1.55181E+01     1.23362E+01     0.00000E+00     0.00000E+00          0.00000E+00
       7128     1.55225E+01     1.23379E+01     0.00000E+00     0.00000E+00          0.00000E+00
       7129     1.55268E+01     1.23396E+01     0.00000E+00     0.00000E+00          0.00000E+00
       7130     1.55312E+01     1.23414E+01     0.00000E+00     0.00000E+00          0.00000E+00
       7131     1.55356E+01     1.23431E+01     0.00000E+00     0.00000E+00          0.00000E+00
       7132     1.55399E+01     1.23448E+01     0.00000E+00     0.00000E+00          0.00000E+00
       7133     1.55443E+01     1.23465E+01     0.00000E+00     0.00000E+00          0.00000E+00
       7134     1.55486E+01     1.23483E+01     0.00000E+00     0.00000E+00          0.00000E+00
       7135     1.55530E+01     1.23500E+01     0.00000E+00     0.00000E+00          0.00000E+00
       7136     1.55573E+01     1.23517E+01     0.00000E+00     0.00000E+00          0.00000E+00
       7137     1.55617E+01     1.23535E+01     0.00000E+00     0.00000E+00          0.00000E+00
       7138     1.55661E+01     1.23552E+01     0.00000E+00     0.00000E+00          0.00000E+00
       7139     1.55704E+01     1.23569E+01     0.00000E+00     0.00000E+00          0.00000E+00
       7140     1.55748E+01     1.23587E+01     0.00000E+00     0.00000E+00          0.00000E+00
       7141     1.55792E+01     1.23604E+01     0.00000E+00     0.00000E+00          0.00000E+00
       7142     1.55835E+01     1.23621E+01     0.00000E+00     0.00000E+00          0.00000E+00
       7143     1.55879E+01     1.23639E+01     0.00000E+00     0.00000E+00          0.00000E+00
       7144     1.55922E+01     1.23656E+01     0.00000E+00     0.00000E+00          0.00000E+00
       7145     1.55966E+01     1.23673E+01     0.00000E+00     0.00000E+00          0.00000E+00
       7146     1.56010E+01     1.23690E+01     0.00000E+00     0.00000E+00          0.00000E+00
       7147     1.56053E+01     1.23708E+01     0.00000E+00     0.00000E+00          0.00000E+00
       7148     1.56097E+01     1.23725E+01     0.00000E+00     0.00000E+00          0.00000E+00
       7149     1.56141E+01     1.23742E+01     0.00000E+00     0.00000E+00          0.00000E+00
       7150     1.56184E+01     1.23760E+01     0.00000E+00     0.00000E+00          0.00000E+00
       7151     1.56228E+01     1.23777E+01     0.00000E+00     0.00000E+00          0.00000E+00
       7152     1.56272E+01     1.23794E+01     0.00000E+00     0.00000E+00          0.00000E+00
       7153     1.56316E+01     1.23812E+01     0.00000E+00     0.00000E+00          0.00000E+00
       7154     1.56359E+01     1.23829E+01     0.00000E+00     0.00000E+00          0.00000E+00
       7155     1.56403E+01     1.23846E+01     0.00000E+00     0.00000E+00          0.00000E+00
       7156     1.56447E+01     1.23864E+01     0.00000E+00     0.00000E+00          0.00000E+00
       7157     1.56490E+01     1.23881E+01     0.00000E+00     0.00000E+00          0.00000E+00
       7158     1.56534E+01     1.23898E+01     0.00000E+00     0.00000E+00          0.00000E+00
       7159     1.56578E+01     1.23916E+01     0.00000E+00     0.00000E+00          0.00000E+00
       7160     1.56622E+01     1.23933E+01     0.00000E+00     0.00000E+00          0.00000E+00
       7161     1.56665E+01     1.23950E+01     0.00000E+00     0.00000E+00          0.00000E+00
       7162     1.56709E+01     1.23967E+01     0.00000E+00     0.00000E+00          0.00000E+00
       7163     1.56753E+01     1.23985E+01     0.00000E+00     0.00000E+00          0.00000E+00
       7164     1.56797E+01     1.24002E+01     0.00000E+00     0.00000E+00          0.00000E+00
       7165     1.56840E+01     1.24019E+01     0.00000E+00     0.00000E+00          0.00000E+00
       7166     1.56884E+01     1.24037E+01     0.00000E+00     0.00000E+00          0.00000E+00
       7167     1.56928E+01     1.24054E+01     0.00000E+00     0.00000E+00          0.00000E+00
       7168     1.56972E+01     1.24071E+01     0.00000E+00     0.00000E+00          0.00000E+00
       7169     1.57016E+01     1.24089E+01     0.00000E+00     0.00000E+00          0.00000E+00
       7170     1.57059E+01     1.24106E+01     0.00000E+00     0.00000E+00          0.00000E+00
       7171     1.57103E+01     1.24123E+01     0.00000E+00     0.00000E+00          0.00000E+00
       7172     1.57147E+01     1.24141E+01     0.00000E+00     0.00000E+00          0.00000E+00
       7173     1.57191E+01     1.24158E+01     0.00000E+00     0.00000E+00          0.00000E+00
       7174     1.57235E+01     1.24175E+01     0.00000E+00     0.00000E+00          0.00000E+00
       7175     1.57279E+01     1.24192E+01     0.00000E+00     0.00000E+00          0.00000E+00
       7176     1.57322E+01     1.24210E+01     0.00000E+00     0.00000E+00          0.00000E+00
       7177     1.57366E+01     1.24227E+01     0.00000E+00     0.00000E+00          0.00000E+00
       7178     1.57410E+01     1.24244E+01     0.00000E+00     0.00000E+00          0.00000E+00
       7179     1.57454E+01     1.24262E+01     0.00000E+00     0.00000E+00          0.00000E+00
       7180     1.57498E+01     1.24279E+01     0.00000E+00     0.00000E+00          0.00000E+00
       7181     1.57542E+01     1.24296E+01     0.00000E+00     0.00000E+00          0.00000E+00
       7182     1.57586E+01     1.24314E+01     0.00000E+00     0.00000E+00          0.00000E+00
       7183     1.57630E+01     1.24331E+01     0.00000E+00     0.00000E+00          0.00000E+00
       7184     1.57673E+01     1.24348E+01     0.00000E+00     0.00000E+00          0.00000E+00
       7185     1.57717E+01     1.24366E+01     0.00000E+00     0.00000E+00          0.00000E+00
       7186     1.57761E+01     1.24383E+01     0.00000E+00     0.00000E+00          0.00000E+00
       7187     1.57805E+01     1.24400E+01     0.00000E+00     0.00000E+00          0.00000E+00
       7188     1.57849E+01     1.24417E+01     0.00000E+00     0.00000E+00          0.00000E+00
       7189     1.57893E+01     1.24435E+01     0.00000E+00     0.00000E+00          0.00000E+00
       7190     1.57937E+01     1.24452E+01     0.00000E+00     0.00000E+00          0.00000E+00
       7191     1.57981E+01     1.24469E+01     0.00000E+00     0.00000E+00          0.00000E+00
       7192     1.58025E+01     1.24487E+01     0.00000E+00     0.00000E+00          0.00000E+00
       7193     1.58069E+01     1.24504E+01     0.00000E+00     0.00000E+00          0.00000E+00
       7194     1.58113E+01     1.24521E+01     0.00000E+00     0.00000E+00          0.00000E+00
       7195     1.58157E+01     1.24539E+01     0.00000E+00     0.00000E+00          0.00000E+00
       7196     1.58201E+01     1.24556E+01     0.00000E+00     0.00000E+00          0.00000E+00
       7197     1.58245E+01     1.24573E+01     0.00000E+00     0.00000E+00          0.00000E+00
       7198     1.58289E+01     1.24591E+01     0.00000E+00     0.00000E+00          0.00000E+00
       7199     1.58333E+01     1.24608E+01     0.00000E+00     0.00000E+00          0.00000E+00
       7200     1.58377E+01     1.24625E+01     0.00000E+00     0.00000E+00          0.00000E+00
       7201     1.58421E+01     1.24642E+01     0.00000E+00     0.00000E+00          0.00000E+00
       7202     1.58465E+01     1.24660E+01     0.00000E+00     0.00000E+00          0.00000E+00
       7203     1.58509E+01     1.24677E+01     0.00000E+00     0.00000E+00          0.00000E+00
       7204     1.58553E+01     1.24694E+01     0.00000E+00     0.00000E+00          0.00000E+00
       7205     1.58597E+01     1.24712E+01     0.00000E+00     0.00000E+00          0.00000E+00
       7206     1.58641E+01     1.24729E+01     0.00000E+00     0.00000E+00          0.00000E+00
       7207     1.58685E+01     1.24746E+01     0.00000E+00     0.00000E+00          0.00000E+00
       7208     1.58729E+01     1.24764E+01     0.00000E+00     0.00000E+00          0.00000E+00
       7209     1.58773E+01     1.24781E+01     0.00000E+00     0.00000E+00          0.00000E+00
       7210     1.58817E+01     1.24798E+01     0.00000E+00     0.00000E+00          0.00000E+00
       7211     1.58861E+01     1.24816E+01     0.00000E+00     0.00000E+00          0.00000E+00
       7212     1.58905E+01     1.24833E+01     0.00000E+00     0.00000E+00          0.00000E+00
       7213     1.58949E+01     1.24850E+01     0.00000E+00     0.00000E+00          0.00000E+00
       7214     1.58993E+01     1.24867E+01     0.00000E+00     0.00000E+00          0.00000E+00
       7215     1.59037E+01     1.24885E+01     0.00000E+00     0.00000E+00          0.00000E+00
       7216     1.59081E+01     1.24902E+01     0.00000E+00     0.00000E+00          0.00000E+00
       7217     1.59125E+01     1.24919E+01     0.00000E+00     0.00000E+00          0.00000E+00
       7218     1.59169E+01     1.24937E+01     0.00000E+00     0.00000E+00          0.00000E+00
       7219     1.59214E+01     1.24954E+01     0.00000E+00     0.00000E+00          0.00000E+00
       7220     1.59258E+01     1.24971E+01     0.00000E+00     0.00000E+00          0.00000E+00
       7221     1.59302E+01     1.24989E+01     0.00000E+00     0.00000E+00          0.00000E+00
       7222     1.59346E+01     1.25006E+01     0.00000E+00     0.00000E+00          0.00000E+00
       7223     1.59390E+01     1.25023E+01     0.00000E+00     0.00000E+00          0.00000E+00
       7224     1.59434E+01     1.25041E+01     0.00000E+00     0.00000E+00          0.00000E+00
       7225     1.59478E+01     1.25058E+01     0.00000E+00     0.00000E+00          0.00000E+00
       7226     1.59522E+01     1.25075E+01     0.00000E+00     0.00000E+00          0.00000E+00
       7227     1.59567E+01     1.25093E+01     0.00000E+00     0.00000E+00          0.00000E+00
       7228     1.59611E+01     1.25110E+01     0.00000E+00     0.00000E+00          0.00000E+00
       7229     1.59655E+01     1.25127E+01     0.00000E+00     0.00000E+00          0.00000E+00
       7230     1.59699E+01     1.25144E+01     0.00000E+00     0.00000E+00          0.00000E+00
       7231     1.59743E+01     1.25162E+01     0.00000E+00     0.00000E+00          0.00000E+00
       7232     1.59787E+01     1.25179E+01     0.00000E+00     0.00000E+00          0.00000E+00
       7233     1.59832E+01     1.25196E+01     0.00000E+00     0.00000E+00          0.00000E+00
       7234     1.59876E+01     1.25214E+01     0.00000E+00     0.00000E+00          0.00000E+00
       7235     1.59920E+01     1.25231E+01     0.00000E+00     0.00000E+00          0.00000E+00
       7236     1.59964E+01     1.25248E+01     0.00000E+00     0.00000E+00          0.00000E+00
       7237     1.60008E+01     1.25266E+01     0.00000E+00     0.00000E+00          0.00000E+00
       7238     1.60053E+01     1.25283E+01     0.00000E+00     0.00000E+00          0.00000E+00
       7239     1.60097E+01     1.25300E+01     0.00000E+00     0.00000E+00          0.00000E+00
       7240     1.60141E+01     1.25318E+01     0.00000E+00     0.00000E+00          0.00000E+00
       7241     1.60185E+01     1.25335E+01     0.00000E+00     0.00000E+00          0.00000E+00
       7242     1.60230E+01     1.25352E+01     0.00000E+00     0.00000E+00          0.00000E+00
       7243     1.60274E+01     1.25369E+01     0.00000E+00     0.00000E+00          0.00000E+00
       7244     1.60318E+01     1.25387E+01     0.00000E+00     0.00000E+00          0.00000E+00
       7245     1.60362E+01     1.25404E+01     0.00000E+00     0.00000E+00          0.00000E+00
       7246     1.60407E+01     1.25421E+01     0.00000E+00     0.00000E+00          0.00000E+00
       7247     1.60451E+01     1.25439E+01     0.00000E+00     0.00000E+00          0.00000E+00
       7248     1.60495E+01     1.25456E+01     0.00000E+00     0.00000E+00          0.00000E+00
       7249     1.60540E+01     1.25473E+01     0.00000E+00     0.00000E+00          0.00000E+00
       7250     1.60584E+01     1.25491E+01     0.00000E+00     0.00000E+00          0.00000E+00
       7251     1.60628E+01     1.25508E+01     0.00000E+00     0.00000E+00          0.00000E+00
       7252     1.60672E+01     1.25525E+01     0.00000E+00     0.00000E+00          0.00000E+00
       7253     1.60717E+01     1.25543E+01     0.00000E+00     0.00000E+00          0.00000E+00
       7254     1.60761E+01     1.25560E+01     0.00000E+00     0.00000E+00          0.00000E+00
       7255     1.60805E+01     1.25577E+01     0.00000E+00     0.00000E+00          0.00000E+00
       7256     1.60850E+01     1.25594E+01     0.00000E+00     0.00000E+00          0.00000E+00
       7257     1.60894E+01     1.25612E+01     0.00000E+00     0.00000E+00          0.00000E+00
       7258     1.60938E+01     1.25629E+01     0.00000E+00     0.00000E+00          0.00000E+00
       7259     1.60983E+01     1.25646E+01     0.00000E+00     0.00000E+00          0.00000E+00
       7260     1.61027E+01     1.25664E+01     0.00000E+00     0.00000E+00          0.00000E+00

This summary file was closed on 03-Nov-2016 at 13:41:40.

