
This summary information was generated by ElastoDyn (v1.04.00a-bjj, 26-Jul-2016) on 03-Nov-2016 at 13:39:24.


Turbine features:

            Upwind, three-bladed rotor with rigid hub.
            The model has 22 of 24 DOFs active (enabled) at start-up.
 Enabled    Platform horizontal surge translation DOF 
 Enabled    Platform horizontal sway translation DOF 
 Enabled    Platform vertical heave translation DOF 
 Enabled    Platform roll tilt rotation DOF 
 Enabled    Platform pitch tilt rotation DOF 
 Enabled    Platform yaw rotation DOF 
 Enabled    1st tower fore-aft bending mode DOF 
 Enabled    1st tower side-to-side bending mode DOF 
 Enabled    2nd tower fore-aft bending mode DOF 
 Enabled    2nd tower side-to-side bending mode DOF 
 Enabled    Nacelle yaw DOF 
 Disabled   Rotor-furl DOF 
 Enabled    Variable speed generator DOF 
 Enabled    Drivetrain rotational-flexibility DOF 
 Disabled   Tail-furl DOF 
 Enabled    1st flapwise bending-mode DOF of blade 1 
 Enabled    1st edgewise bending-mode DOF of blade 1 
 Enabled    2nd flapwise bending-mode DOF of blade 1 
 Enabled    1st flapwise bending-mode DOF of blade 2 
 Enabled    1st edgewise bending-mode DOF of blade 2 
 Enabled    2nd flapwise bending-mode DOF of blade 2 
 Enabled    1st flapwise bending-mode DOF of blade 3 
 Enabled    1st edgewise bending-mode DOF of blade 3 
 Enabled    2nd flapwise bending-mode DOF of blade 3 


Time steps:

    Structural            (s)        0.00500000


Some calculated parameters:

    Hub-Height            (m)            90.000
    Flexible Tower Length (m)            77.600
    Flexible Blade Length (m)            61.500


Rotor mass properties:

    Rotor Mass            (kg)       109389.852
    Rotor Inertia         (kg-m^2) 38677056.000
                                        Blade 1      Blade 2      Blade 3
                                        -------      -------      -------
    Mass                  (kg)        17536.617    17536.617    17536.617
    Second Mass Moment    (kg-m^2) 11752357.000 11752357.000 11752357.000
    First Mass Moment     (kg-m)     362132.781   362132.781   362132.781
    Center of Mass        (m)            20.650       20.650       20.650


Additional mass properties:

    Tower-top Mass        (kg)       349389.844
    Tower Mass            (kg)       237098.422
    Platform Mass         (kg)            0.000
    Mass Incl. Platform   (kg)       586488.250


Interpolated tower properties:

Node  TwFract   HNodes  DHNodes  TMassDen    FAStiff    SSStiff
 (-)      (-)      (m)      (m)    (kg/m)     (Nm^2)     (Nm^2)
   1    0.025    1.940    3.880  4237.492  4.591E+11  4.591E+11
   2    0.075    5.820    3.880  4099.458  4.284E+11  4.284E+11
   3    0.125    9.700    3.880  3963.692  3.993E+11  3.993E+11
   4    0.175   13.580    3.880  3830.198  3.716E+11  3.716E+11
   5    0.225   17.460    3.880  3698.968  3.454E+11  3.454E+11
   6    0.275   21.340    3.880  3570.003  3.207E+11  3.207E+11
   7    0.325   25.220    3.880  3443.305  2.972E+11  2.972E+11
   8    0.375   29.100    3.880  3318.875  2.751E+11  2.751E+11
   9    0.425   32.980    3.880  3196.710  2.543E+11  2.543E+11
  10    0.475   36.860    3.880  3076.810  2.346E+11  2.346E+11
  11    0.525   40.740    3.880  2959.178  2.161E+11  2.161E+11
  12    0.575   44.620    3.880  2843.812  1.987E+11  1.987E+11
  13    0.625   48.500    3.880  2730.712  1.824E+11  1.824E+11
  14    0.675   52.380    3.880  2619.877  1.671E+11  1.671E+11
  15    0.725   56.260    3.880  2511.312  1.528E+11  1.528E+11
  16    0.775   60.140    3.880  2405.018  1.394E+11  1.394E+11
  17    0.825   64.020    3.880  2300.988  1.270E+11  1.270E+11
  18    0.875   67.900    3.880  2199.223  1.153E+11  1.153E+11
  19    0.925   71.780    3.880  2099.723  1.045E+11  1.045E+11
  20    0.975   75.660    3.880  2002.488  9.450E+10  9.450E+10


Interpolated blade 1 properties:

Node  BlFract   RNodes  DRNodes PitchAxis  StrcTwst  BMassDen    FlpStff    EdgStff
 (-)      (-)      (m)      (m)       (-)     (deg)    (kg/m)     (Nm^2)     (Nm^2)
   1    0.029    3.309    3.618     0.253    13.308   787.554  1.823E+10  1.952E+10
   2    0.088    6.926    3.618     0.294    13.308   464.487  7.021E+09  9.977E+09
   3    0.147   10.544    3.618     0.339    13.308   414.917  4.944E+09  6.990E+09
   4    0.206   14.162    3.618     0.375    12.545   412.664  3.178E+09  6.695E+09
   5    0.265   17.779    3.618     0.375    10.770   361.957  2.263E+09  4.796E+09
   6    0.324   21.397    3.618     0.375     9.757   346.452  1.862E+09  4.283E+09
   7    0.382   25.015    3.618     0.375     8.731   330.982  1.440E+09  3.835E+09
   8    0.441   28.632    3.618     0.375     7.647   304.395  9.968E+08  3.304E+09
   9    0.500   32.250    3.618     0.375     6.549   272.375  6.410E+08  2.685E+09
  10    0.559   35.868    3.618     0.375     5.498   250.787  4.010E+08  2.292E+09
  11    0.618   39.485    3.618     0.375     4.462   211.669  2.468E+08  1.610E+09
  12    0.676   43.103    3.618     0.375     3.482   177.049  1.409E+08  1.225E+09
  13    0.735   46.721    3.618     0.375     2.693   153.160  9.890E+07  9.067E+08
  14    0.794   50.338    3.618     0.375     1.993   128.005  7.145E+07  6.486E+08
  15    0.853   53.956    3.618     0.375     1.292   102.116  4.819E+07  4.472E+08
  16    0.912   57.574    3.618     0.375     0.598    77.547  3.095E+07  3.109E+08
  17    0.971   61.191    3.618     0.375     0.141    51.403  1.013E+07  1.019E+08


Interpolated blade 2 properties:

Node  BlFract   RNodes  DRNodes PitchAxis  StrcTwst  BMassDen    FlpStff    EdgStff
 (-)      (-)      (m)      (m)       (-)     (deg)    (kg/m)     (Nm^2)     (Nm^2)
   1    0.029    3.309    3.618     0.253    13.308   787.554  1.823E+10  1.952E+10
   2    0.088    6.926    3.618     0.294    13.308   464.487  7.021E+09  9.977E+09
   3    0.147   10.544    3.618     0.339    13.308   414.917  4.944E+09  6.990E+09
   4    0.206   14.162    3.618     0.375    12.545   412.664  3.178E+09  6.695E+09
   5    0.265   17.779    3.618     0.375    10.770   361.957  2.263E+09  4.796E+09
   6    0.324   21.397    3.618     0.375     9.757   346.452  1.862E+09  4.283E+09
   7    0.382   25.015    3.618     0.375     8.731   330.982  1.440E+09  3.835E+09
   8    0.441   28.632    3.618     0.375     7.647   304.395  9.968E+08  3.304E+09
   9    0.500   32.250    3.618     0.375     6.549   272.375  6.410E+08  2.685E+09
  10    0.559   35.868    3.618     0.375     5.498   250.787  4.010E+08  2.292E+09
  11    0.618   39.485    3.618     0.375     4.462   211.669  2.468E+08  1.610E+09
  12    0.676   43.103    3.618     0.375     3.482   177.049  1.409E+08  1.225E+09
  13    0.735   46.721    3.618     0.375     2.693   153.160  9.890E+07  9.067E+08
  14    0.794   50.338    3.618     0.375     1.993   128.005  7.145E+07  6.486E+08
  15    0.853   53.956    3.618     0.375     1.292   102.116  4.819E+07  4.472E+08
  16    0.912   57.574    3.618     0.375     0.598    77.547  3.095E+07  3.109E+08
  17    0.971   61.191    3.618     0.375     0.141    51.403  1.013E+07  1.019E+08


Interpolated blade 3 properties:

Node  BlFract   RNodes  DRNodes PitchAxis  StrcTwst  BMassDen    FlpStff    EdgStff
 (-)      (-)      (m)      (m)       (-)     (deg)    (kg/m)     (Nm^2)     (Nm^2)
   1    0.029    3.309    3.618     0.253    13.308   787.554  1.823E+10  1.952E+10
   2    0.088    6.926    3.618     0.294    13.308   464.487  7.021E+09  9.977E+09
   3    0.147   10.544    3.618     0.339    13.308   414.917  4.944E+09  6.990E+09
   4    0.206   14.162    3.618     0.375    12.545   412.664  3.178E+09  6.695E+09
   5    0.265   17.779    3.618     0.375    10.770   361.957  2.263E+09  4.796E+09
   6    0.324   21.397    3.618     0.375     9.757   346.452  1.862E+09  4.283E+09
   7    0.382   25.015    3.618     0.375     8.731   330.982  1.440E+09  3.835E+09
   8    0.441   28.632    3.618     0.375     7.647   304.395  9.968E+08  3.304E+09
   9    0.500   32.250    3.618     0.375     6.549   272.375  6.410E+08  2.685E+09
  10    0.559   35.868    3.618     0.375     5.498   250.787  4.010E+08  2.292E+09
  11    0.618   39.485    3.618     0.375     4.462   211.669  2.468E+08  1.610E+09
  12    0.676   43.103    3.618     0.375     3.482   177.049  1.409E+08  1.225E+09
  13    0.735   46.721    3.618     0.375     2.693   153.160  9.890E+07  9.067E+08
  14    0.794   50.338    3.618     0.375     1.993   128.005  7.145E+07  6.486E+08
  15    0.853   53.956    3.618     0.375     1.292   102.116  4.819E+07  4.472E+08
  16    0.912   57.574    3.618     0.375     0.598    77.547  3.095E+07  3.109E+08
  17    0.971   61.191    3.618     0.375     0.141    51.403  1.013E+07  1.019E+08


Requested Outputs:


  Col  Parameter  Units
  ---  ---------  -----
   0   Time       (s)       
   1   OoPDefl1   (m)       
   2   IPDefl1    (m)       
   3   TwstDefl1  (deg)     
   4   BldPitch1  (deg)     
   5   Azimuth    (deg)     
   6   RotSpeed   (rpm)     
   7   GenSpeed   (rpm)     
   8   TwHt1TPxi  (m)       
   9   TwHt1TPyi  (m)       
  10   TTDspTwst  (deg)     
  11   PtfmSurge  (m)       
  12   PtfmSway   (m)       
  13   PtfmRoll   (deg)     
  14   PtfmPitch  (deg)     
  15   Spn2MLxb1  (kN·m)    
  16   Spn2MLyb1  (kN·m)    
  17   RootFxc1   (kN)      
  18   RootFyc1   (kN)      
  19   RootFzc1   (kN)      
  20   RootMxc1   (kN·m)    
  21   RootMyc1   (kN·m)    
  22   RootMzc1   (kN·m)    
  23   RotTorq    (kN·m)    
  24   LSSGagMya  (kN·m)    
  25   LSSGagMza  (kN·m)    
  26   YawBrFxp   (kN)      
  27   YawBrFyp   (kN)      
  28   YawBrFzp   (kN)      
  29   YawBrMxp   (kN·m)    
  30   YawBrMyp   (kN·m)    
  31   YawBrMzp   (kN·m)    
