
This summary information was generated by ElastoDyn (v1.04.00a-bjj, 26-Jul-2016) on 03-Nov-2016 at 13:36:41.


Turbine features:

            Upwind, three-bladed rotor with rigid hub.
            The model has 15 of 24 DOFs active (enabled) at start-up.
 Disabled   Platform horizontal surge translation DOF 
 Disabled   Platform horizontal sway translation DOF 
 Disabled   Platform vertical heave translation DOF 
 Disabled   Platform roll tilt rotation DOF 
 Disabled   Platform pitch tilt rotation DOF 
 Disabled   Platform yaw rotation DOF 
 Enabled    1st tower fore-aft bending mode DOF 
 Enabled    1st tower side-to-side bending mode DOF 
 Enabled    2nd tower fore-aft bending mode DOF 
 Enabled    2nd tower side-to-side bending mode DOF 
 Disabled   Nacelle yaw DOF 
 Disabled   Rotor-furl DOF 
 Enabled    Variable speed generator DOF 
 Enabled    Drivetrain rotational-flexibility DOF 
 Disabled   Tail-furl DOF 
 Enabled    1st flapwise bending-mode DOF of blade 1 
 Enabled    1st edgewise bending-mode DOF of blade 1 
 Enabled    2nd flapwise bending-mode DOF of blade 1 
 Enabled    1st flapwise bending-mode DOF of blade 2 
 Enabled    1st edgewise bending-mode DOF of blade 2 
 Enabled    2nd flapwise bending-mode DOF of blade 2 
 Enabled    1st flapwise bending-mode DOF of blade 3 
 Enabled    1st edgewise bending-mode DOF of blade 3 
 Enabled    2nd flapwise bending-mode DOF of blade 3 


Time steps:

    Structural            (s)        0.00500000


Some calculated parameters:

    Hub-Height            (m)            84.288
    Flexible Tower Length (m)            82.390
    Flexible Blade Length (m)            33.250


Rotor mass properties:

    Rotor Mass            (kg)        26885.770
    Rotor Inertia         (kg-m^2)  2962443.500
                                        Blade 1      Blade 2      Blade 3
                                        -------      -------      -------
    Mass                  (kg)         3912.590     3912.590     3912.590
    Second Mass Moment    (kg-m^2)   800799.812   800799.812   800799.812
    First Mass Moment     (kg-m)      46618.785    46618.785    46618.785
    Center of Mass        (m)            11.915       11.915       11.915


Additional mass properties:

    Tower-top Mass        (kg)        78055.766
    Tower Mass            (kg)       123003.391
    Platform Mass         (kg)            0.000
    Mass Incl. Platform   (kg)       201059.156


Interpolated tower properties:

Node  TwFract   HNodes  DHNodes  TMassDen    FAStiff    SSStiff
 (-)      (-)      (m)      (m)    (kg/m)     (Nm^2)     (Nm^2)
   1    0.050    4.120    8.239  2426.476  2.208E+11  2.208E+11
   2    0.150   12.359    8.239  2185.391  1.791E+11  1.791E+11
   3    0.250   20.597    8.239  1956.755  1.436E+11  1.436E+11
   4    0.350   28.837    8.239  1740.569  1.136E+11  1.136E+11
   5    0.450   37.076    8.239  1536.834  8.843E+10  8.843E+10
   6    0.550   45.314    8.239  1346.341  6.789E+10  6.789E+10
   7    0.650   53.553    8.239  1169.060  5.132E+10  5.132E+10
   8    0.750   61.792    8.239  1004.227  3.797E+10  3.797E+10
   9    0.850   70.031    8.239   851.844  2.740E+10  2.740E+10
  10    0.950   78.270    8.239   711.910  1.919E+10  1.919E+10


Interpolated blade 1 properties:

Node  BlFract   RNodes  DRNodes PitchAxis  StrcTwst  BMassDen    FlpStff    EdgStff
 (-)      (-)      (m)      (m)       (-)     (deg)    (kg/m)     (Nm^2)     (Nm^2)
   1    0.033    2.858    2.217     0.258    11.100   180.854  1.112E+09  1.140E+09
   2    0.100    5.075    2.217     0.296    11.100   183.682  7.967E+08  9.759E+08
   3    0.167    7.292    2.217     0.324    11.100   186.510  4.817E+08  8.121E+08
   4    0.233    9.508    2.217     0.338    10.407   184.016  2.571E+08  6.655E+08
   5    0.300   11.725    2.217     0.332     8.380   171.286  2.067E+08  5.519E+08
   6    0.367   13.942    2.217     0.324     6.353   158.557  1.562E+08  4.382E+08
   7    0.433   16.158    2.217     0.315     4.327   145.827  1.058E+08  3.246E+08
   8    0.500   18.375    2.217     0.308     2.850   130.509  6.886E+07  2.369E+08
   9    0.567   20.592    2.217     0.301     2.217   111.223  5.272E+07  1.887E+08
  10    0.633   22.808    2.217     0.295     1.583    91.935  3.659E+07  1.406E+08
  11    0.700   25.025    2.217     0.286     0.950    72.647  2.045E+07  9.245E+07
  12    0.767   27.242    2.217     0.278     0.532    56.249  1.025E+07  5.928E+07
  13    0.833   29.458    2.217     0.272     0.380    43.422  7.387E+06  4.459E+07
  14    0.900   31.675    2.217     0.265     0.228    30.595  4.524E+06  2.990E+07
  15    0.967   33.892    2.217     0.256     0.076    17.767  1.661E+06  1.522E+07


Interpolated blade 2 properties:

Node  BlFract   RNodes  DRNodes PitchAxis  StrcTwst  BMassDen    FlpStff    EdgStff
 (-)      (-)      (m)      (m)       (-)     (deg)    (kg/m)     (Nm^2)     (Nm^2)
   1    0.033    2.858    2.217     0.258    11.100   180.854  1.112E+09  1.140E+09
   2    0.100    5.075    2.217     0.296    11.100   183.682  7.967E+08  9.759E+08
   3    0.167    7.292    2.217     0.324    11.100   186.510  4.817E+08  8.121E+08
   4    0.233    9.508    2.217     0.338    10.407   184.016  2.571E+08  6.655E+08
   5    0.300   11.725    2.217     0.332     8.380   171.286  2.067E+08  5.519E+08
   6    0.367   13.942    2.217     0.324     6.353   158.557  1.562E+08  4.382E+08
   7    0.433   16.158    2.217     0.315     4.327   145.827  1.058E+08  3.246E+08
   8    0.500   18.375    2.217     0.308     2.850   130.509  6.886E+07  2.369E+08
   9    0.567   20.592    2.217     0.301     2.217   111.223  5.272E+07  1.887E+08
  10    0.633   22.808    2.217     0.295     1.583    91.935  3.659E+07  1.406E+08
  11    0.700   25.025    2.217     0.286     0.950    72.647  2.045E+07  9.245E+07
  12    0.767   27.242    2.217     0.278     0.532    56.249  1.025E+07  5.928E+07
  13    0.833   29.458    2.217     0.272     0.380    43.422  7.387E+06  4.459E+07
  14    0.900   31.675    2.217     0.265     0.228    30.595  4.524E+06  2.990E+07
  15    0.967   33.892    2.217     0.256     0.076    17.767  1.661E+06  1.522E+07


Interpolated blade 3 properties:

Node  BlFract   RNodes  DRNodes PitchAxis  StrcTwst  BMassDen    FlpStff    EdgStff
 (-)      (-)      (m)      (m)       (-)     (deg)    (kg/m)     (Nm^2)     (Nm^2)
   1    0.033    2.858    2.217     0.258    11.100   180.854  1.112E+09  1.140E+09
   2    0.100    5.075    2.217     0.296    11.100   183.682  7.967E+08  9.759E+08
   3    0.167    7.292    2.217     0.324    11.100   186.510  4.817E+08  8.121E+08
   4    0.233    9.508    2.217     0.338    10.407   184.016  2.571E+08  6.655E+08
   5    0.300   11.725    2.217     0.332     8.380   171.286  2.067E+08  5.519E+08
   6    0.367   13.942    2.217     0.324     6.353   158.557  1.562E+08  4.382E+08
   7    0.433   16.158    2.217     0.315     4.327   145.827  1.058E+08  3.246E+08
   8    0.500   18.375    2.217     0.308     2.850   130.509  6.886E+07  2.369E+08
   9    0.567   20.592    2.217     0.301     2.217   111.223  5.272E+07  1.887E+08
  10    0.633   22.808    2.217     0.295     1.583    91.935  3.659E+07  1.406E+08
  11    0.700   25.025    2.217     0.286     0.950    72.647  2.045E+07  9.245E+07
  12    0.767   27.242    2.217     0.278     0.532    56.249  1.025E+07  5.928E+07
  13    0.833   29.458    2.217     0.272     0.380    43.422  7.387E+06  4.459E+07
  14    0.900   31.675    2.217     0.265     0.228    30.595  4.524E+06  2.990E+07
  15    0.967   33.892    2.217     0.256     0.076    17.767  1.661E+06  1.522E+07


Requested Outputs:


  Col  Parameter  Units
  ---  ---------  -----
   0   Time       (s)       
