
This summary file was generated by TurbSim (v1.50, 25-Sep-2009) on 11-Mar-2010 at 14:18:35.


Runtime Options:

    123456  Random seed #1
    789012  Random seed #2
         F  Output binary HH turbulence parameters?
         F  Output formatted turbulence parameters?
         F  Output AeroDyn HH files?
         F  Output AeroDyn FF files?
         T  Output BLADED FF files?
         F  Output tower data?
         F  Output formatted FF files?
         F  Output coherent turbulence time step file?
         T  Clockwise rotation when looking downwind?
 0 -  NONE  IEC turbulence models scaled to exact specified standard deviation


Turbine/Model Specifications:

         6  Vertical grid-point matrix dimension
         6  Horizontal grid-point matrix dimension
     0.050  Time step [seconds]
   600.000  Analysis time [seconds]
    70.000  Usable output time [seconds]
    25.000  Hub height [m]
    18.000  Grid height [m]
    18.000  Grid width [m]
     0.000  Vertical flow angle [degrees]
     0.000  Horizontal flow angle [degrees]


Meteorological Boundary Conditions:

    IECVKM  IEC von Karman spectral model
         1  IEC standard: IEC 61400-1 Ed. 2: 1999
         A  IEC turbulence characteristic
       NTM  IEC Normal Turbulence Model
       N/A  IEC Extreme Turbulence Model (ETM) "c" parameter [m/s]
       IEC  Wind profile type
    25.000  Reference height [m]
    12.000  Reference wind speed [m/s]
       N/A  Jet height [m]
     0.200  Power law exponent
     0.030  Surface roughness length [m]


You have requested that the following file(s) be generated:

   25m_12mps.wnd (AeroDyn/BLADED full-field wnd file)


Turbulence Simulation Scaling Parameter Summary:

   Turbulence model used                            =  IEC von Karman
   Turbulence characteristic                        =  A
   IEC turbulence type                              =  Normal Turbulence Model
   IEC standard                                     =  IEC 61400-1 Ed. 2: 1999
   Mean wind speed at hub height                    =   12.000 m/s
   Char value of turbulence intensity at 15 m/s     =   18.000%
   Standard deviation slope                         =    2.000
   Characteristic value of standard deviation       =    2.340 m/s
   Turbulence scale                                 =   17.500 m
   Isotropic integral scale                         =   61.250 m
   Characteristic value of hub turbulence intensity =   19.500%
   Gradient Richardson number                       =    0.000

   Wind profile type                                =  Power law on rotor disk, logarithmic elsewhere
   Power law exponent                               =    0.200
   Mean shear across rotor disk                     =    0.099 (m/s)/m
   Assumed rotor diameter                           =   18.000 m
   Surface roughness length                         =    0.030 m

   Number of time steps in the FFT                  =    12000
   Number of time steps output                      =     1430


Mean Flow Angles:

   Vertical   =   0.0 degrees
   Horizontal =   0.0 degrees

Mean Wind Speed Profile:

   Height    Wind Speed   Horizontal Angle  U-comp (X)   V-comp (Y)   W-comp (Z)
     (m)        (m/s)         (degrees)       (m/s)        (m/s)        (m/s)   
   ------    ----------   ----------------  ----------   ----------   ----------
     34.0       12.76            0.00         12.76         0.00         0.00
     30.4       12.48            0.00         12.48         0.00         0.00
     26.8       12.17            0.00         12.17         0.00         0.00
     25.0       12.00            0.00         12.00         0.00         0.00
     23.2       11.82            0.00         11.82         0.00         0.00
     19.6       11.43            0.00         11.43         0.00         0.00
     16.0       10.98            0.00         10.98         0.00         0.00


Harvested Random Seeds after Generation of the Random Numbers:

    929490167 Harvested seed #1
   2116791282 Harvested seed #2


Hub-Height Simulated Turbulence Statistical Summary:

   Type of Wind        Min (m/s)   Mean (m/s)    Max (m/s)  Sigma (m/s)       TI (%)
   ----------------    ---------   ----------    ---------  -----------       ------
   Longitudinal (u)         3.74        12.00        19.81        2.268       18.899
   Lateral (v)             -7.58         0.00         7.56        2.307       19.224
   Vertical (w)            -8.01         0.00         8.58        2.307       19.224
   U component              3.74        12.00        19.81        2.268       18.899
   V component             -7.58         0.00         7.56        2.307       19.224
   W component             -8.01         0.00         8.58        2.307       19.224
   Horizontal (U&V)         3.94        12.23        19.85        2.211       18.081
   Total                    4.03        12.45        19.85        2.185       17.546

                       Min Reynolds     Mean Reynolds    Max Reynolds    Correlation
   Product             Stress (m/s)^2   Stress (m/s)^2   Stress (m/s)^2  Coefficient
   ----------------    --------------   --------------   --------------  -----------
   u'w'                    -46.741            -0.126            30.917        -0.024
   u'v'                    -29.192            -0.248            31.238        -0.047
   v'w'                    -33.757            -0.608            35.777        -0.114


   Friction Velocity (Ustar)  =      0.355 m/s
   Maximum Instantaneous TKE  =     56.997 (m/s)^2
   Maximum Instantaneous CTKE =     29.798 (m/s)^2


Grid Point Variance Summary:

   Y-coord   -9.00   -5.40   -1.80    1.80    5.40    9.00

   Height   Standard deviation at grid points for the u component:
    34.00    2.228   2.230   2.186   2.220   2.359   2.395
    30.40    2.305   2.188   2.263   2.234   2.262   2.385
    26.80    2.249   2.203   2.180   2.230   2.321   2.245
    23.20    2.249   2.318   2.242   2.226   2.188   2.291
    19.60    2.266   2.253   2.230   2.157   2.232   2.379
    16.00    2.303   2.214   2.273   2.314   2.410   2.510

   Height   Standard deviation at grid points for the v component:
    34.00    2.307   2.307   2.307   2.307   2.307   2.307
    30.40    2.307   2.307   2.307   2.307   2.307   2.307
    26.80    2.307   2.307   2.307   2.307   2.307   2.307
    23.20    2.307   2.307   2.307   2.307   2.307   2.307
    19.60    2.307   2.307   2.307   2.307   2.307   2.307
    16.00    2.307   2.307   2.307   2.307   2.307   2.307

   Height   Standard deviation at grid points for the w component:
    34.00    2.307   2.307   2.307   2.307   2.307   2.307
    30.40    2.307   2.307   2.307   2.307   2.307   2.307
    26.80    2.307   2.307   2.307   2.307   2.307   2.307
    23.20    2.307   2.307   2.307   2.307   2.307   2.307
    19.60    2.307   2.307   2.307   2.307   2.307   2.307
    16.00    2.307   2.307   2.307   2.307   2.307   2.307

   Mean standard deviation across all grid points:
      u component:    2.271 m/s
      v component:    2.307 m/s
      w component:    2.307 m/s


U-component (X) statistics from the interpolated hub point:

   Mean =  11.9950 m/s
   TI   =  16.5527 %


Normalizing Parameters for Binary Data (approximate statistics):

   UBar  =  12.0000 m/s
   TI(u) =  18.8988 %
   TI(v) =  19.2241 %
   TI(w) =  19.2241 %

   Height Offset =   0.0000 m
   Grid Base     =  16.0000 m

Nyquist frequency of turbulent wind field =        10.000 Hz


Processing complete.  0.625 CPU seconds used.
