
This summary information was generated by AeroDyn (v15.04.00, 29-Oct-2016) on 03-Nov-2016 at 13:35:04.

======  General Options  ============================================================================
            1  WakeMod        - Type of wake/induction model: Blade-Element/Momentum Theory
            2  AFAeroMod      - Type of blade airfoil aerodynamics model: Beddoes-Leishman unsteady model
            0  TwrPotent      - Type tower influence on wind based on potential flow around the tower: none
            T  TwrShadow      - Calculate tower influence on wind based on downstream tower shadow? Yes
            F  TwrAero        - Calculate tower aerodynamic loads? No
======  Blade-Element/Momentum Theory Options  ======================================================
            2  SkewMod        - Type of skewed-wake correction model: Pitt/Peters
            T  TipLoss        - Use the Prandtl tip-loss model? Yes
            F  HubLoss        - Use the Prandtl hub-loss model? No
            T  TanInd         - Include tangential induction in BEMT calculations? Yes
            F  AIDrag         - Include the drag term in the axial-induction calculation? No
            F  AIDrag         - Include the drag term in the tangential-induction calculation? No
   5.0000E-05  IndToler       - Convergence tolerance for BEM induction factors (radians)
======  Beddoes-Leishman Unsteady Airfoil Aerodynamics Options  =====================================
            3  UAMod          - Unsteady Aero Model: Minemma/Pierce variant (changes in Cc and Cm)
            T  FLookup        - Use a lookup for f'? Yes
======  Outputs  ====================================================================================
            3  NBlOuts        - Number of blade nodes selected for output
           12  NumBlNds       - Number of blade nodes in the analysis
               Blade nodes selected for output:  Output node  Analysis node
                                                 -----------  -------------
                                                           1              1
                                                           2              7
                                                           3             12
            0  NTwOuts        - Number of tower nodes selected for output
               Requested Output Channels:
               Col   Parameter  Units
               ----  ---------  -----
                  0  Time       (s)       
                  1  B1N3VUndx  (m/s)     
                  2  B1N3VUndy  (m/s)     
                  3  B1N3VUndz  (m/s)     
                  4  B1N3VDisx  (m/s)     
                  5  B1N3VDisy  (m/s)     
                  6  B1N3VDisz  (m/s)     
                  7  B1N3STVx   (m/s)     
                  8  B1N3STVy   (m/s)     
                  9  B1N3STVz   (m/s)     
