
This file was generated by AeroDyn14 (v14.05.01a-bjj, 25-Jul-2016) on 03-Nov-2016 at 13:35:59.

Inputs read in from the AeroDyn input file:
UAE Phase VI (Ames) aerodynamic parameters for FAST certification test #9.

           SI  SysUnits       - Units for input and output         
       STEADY  StallMod       - Dynamic stall model                 [NO Dynamic stall]
       USE_CM  UseCm          - Aerodynamic pitching moment model   [Pitching Moments calculated]
        EQUIL  InfModel       - Inflow model                        [Equilibrium]
        SWIRL  IndModel       - Induction factor model              [Normal and Radial flow induction factors calculated]
   5.0000E-03  AToler         - Convergence tolerance for induction factor
        PRAND  TLModel        - Tip-loss model                      [Prandtl model]
        PRAND  HLModel        - Hub-loss model                      [Prandtl model]
   1.2192E+01  HH             - Wind reference (hub) height, m
   3.5000E-01  TwrShad        - Tower shadow centerline velocity deficit
   4.0000E-01  ShadHWid       - Tower shadow half width, m
   1.4010E+00  T_Shad_Refpt   - Tower shadow reference point, m
   1.2460E+00  AirDens        - Air density, kg/m^3
   1.4639E-05  KinVisc        - Kinematic air viscosity, m^2/sec
   3.0000E-03  DTAERO         - Time interval for aerodynamic calculations, sec
           10  NumFoil        - Number of airfoil files used. Files listed below:
".\UAE_VI/AeroData/cylinder.dat"
".\UAE_VI/AeroData/Mod_S809_129.dat"
".\UAE_VI/AeroData/Mod_S809_185.dat"
".\UAE_VI/AeroData/Mod_S809_242.dat"
".\UAE_VI/AeroData/Mod_S809_298.dat"
".\UAE_VI/AeroData/Mod_S809_354.dat"
".\UAE_VI/AeroData/Mod_S809_410.dat"
".\UAE_VI/AeroData/Mod_S809_600.dat"
".\UAE_VI/AeroData/Mod_S809_800.dat"
".\UAE_VI/AeroData/Mod_S809_Outboard.dat"
           21  BldNodes       - Number of blade elements per blade

     Element     RELM       Twist       DR        Chord      NFoil     Print?    Tip-loss   Hub-loss 
       (-)        (m)       (deg)       (m)        (m)        (-)     (Yes/No)   constant   constant 
   ---------- ---------- ---------- ---------- ---------- ---------- ---------- ---------- ----------
            1    0.56800    0.00000    0.27210    0.21900          1         No    7.85387    0.31481
            2    0.88010   -0.09800    0.35200    0.18100          1         No    4.71412    1.03727
            3    1.23210   19.42300    0.35200    0.71400          3         No    3.08165    1.85208
            4    1.50870   14.31800    0.20120    0.71100          4         No    2.33333    2.49236
            5    1.70990   10.97100    0.20120    0.69100          5         No    1.94111    2.95810
            6    1.92780    8.24400    0.23470    0.66800          6         No    1.60867    3.46250
            7    2.14570    6.16400    0.20120    0.64700          7         No    1.34376    3.96690
            8    2.34690    4.68900    0.20120    0.62700          7         No    1.14283    4.43264
            9    2.54800    3.49900    0.20120    0.60600          8         No    0.97370    4.89815
           10    2.76600    2.47800    0.23490    0.58400          8         No    0.81815    5.40278
           11    2.98400    1.68600    0.20100    0.56100          8         No    0.68532    5.90741
           12    3.18500    1.11500    0.20120    0.54200          8         No    0.57896    6.37269
           13    3.38620    0.66600    0.20120    0.52200          8         No    0.48515    6.83843
           14    3.60410    0.26700    0.23470    0.49900          8         No    0.39536    7.34282
           15    3.82200   -0.07900    0.20120    0.47800          8         No    0.31580    7.84722
           16    4.02320   -0.38100    0.20120    0.45700          9         No    0.25000    8.31296
           17    4.22440   -0.67900    0.20120    0.43700          9         No    0.19046    8.77870
           18    4.40040   -0.93300    0.15090    0.41900          9         No    0.14285    9.18611
           19    4.57640   -1.18400    0.20120    0.40100         10         No    0.09890    9.59352
           20    4.77760   -1.46600    0.20120    0.38100         10         No    0.05262   10.05926
           21    4.95360   -1.71100    0.15090    0.36300         10         No    0.01522   10.46667


 Rotor radius     =   5.029 m
 Hub radius       =   0.432 m
 Number of blades =   2
