
This summary information was generated by ElastoDyn (v1.04.00a-bjj, 26-Jul-2016) on 03-Nov-2016 at 13:35:59.


Turbine features:

            Downwind, two-bladed rotor with rigid hub.
            The model has 13 of 22 DOFs active (enabled) at start-up.
 Disabled   Platform horizontal surge translation DOF 
 Disabled   Platform horizontal sway translation DOF 
 Disabled   Platform vertical heave translation DOF 
 Disabled   Platform roll tilt rotation DOF 
 Disabled   Platform pitch tilt rotation DOF 
 Disabled   Platform yaw rotation DOF 
 Enabled    1st tower fore-aft bending mode DOF 
 Enabled    1st tower side-to-side bending mode DOF 
 Enabled    2nd tower fore-aft bending mode DOF 
 Enabled    2nd tower side-to-side bending mode DOF 
 Enabled    Nacelle yaw DOF 
 Disabled   Rotor-furl DOF 
 Enabled    Variable speed generator DOF 
 Enabled    Drivetrain rotational-flexibility DOF 
 Disabled   Tail-furl DOF 
 Enabled    1st flapwise bending-mode DOF of blade 1 
 Enabled    1st edgewise bending-mode DOF of blade 1 
 Enabled    2nd flapwise bending-mode DOF of blade 1 
 Enabled    1st flapwise bending-mode DOF of blade 2 
 Enabled    1st edgewise bending-mode DOF of blade 2 
 Enabled    2nd flapwise bending-mode DOF of blade 2 
 Disabled   Hub teetering DOF 


Time steps:

    Structural            (s)        0.00300000


Some calculated parameters:

    Hub-Height            (m)            12.192
    Flexible Tower Length (m)            11.500
    Flexible Blade Length (m)             4.597


Rotor mass properties:

    Rotor Mass            (kg)          579.394
    Rotor Inertia         (kg-m^2)      778.147
                                        Blade 1      Blade 2
                                        -------      -------
    Mass                  (kg)           61.247       61.247
    Second Mass Moment    (kg-m^2)      287.343      287.343
    First Mass Moment     (kg-m)        104.514      104.514
    Center of Mass        (m)             1.706        1.706


Additional mass properties:

    Tower-top Mass        (kg)         1834.494
    Tower Mass            (kg)         2576.975
    Platform Mass         (kg)            0.000
    Mass Incl. Platform   (kg)         4411.469


Interpolated tower properties:

Node  TwFract   HNodes  DHNodes  TMassDen    FAStiff    SSStiff
 (-)      (-)      (m)      (m)    (kg/m)     (Nm^2)     (Nm^2)
   1    0.024    0.274    0.548   260.467  2.359E+08  2.359E+08
   2    0.071    0.821    0.548   260.467  2.359E+08  2.359E+08
   3    0.119    1.369    0.548   260.467  2.359E+08  2.359E+08
   4    0.167    1.917    0.548   260.467  2.359E+08  2.359E+08
   5    0.214    2.464    0.548   260.467  2.359E+08  2.359E+08
   6    0.262    3.012    0.548   260.467  2.359E+08  2.359E+08
   7    0.310    3.560    0.548   243.481  1.861E+08  1.861E+08
   8    0.357    4.107    0.548   207.107  7.947E+07  7.947E+07
   9    0.405    4.655    0.548   207.107  7.947E+07  7.947E+07
  10    0.452    5.202    0.548   207.107  7.947E+07  7.947E+07
  11    0.500    5.750    0.548   207.107  7.947E+07  7.947E+07
  12    0.548    6.298    0.548   207.107  7.947E+07  7.947E+07
  13    0.595    6.845    0.548   207.107  7.947E+07  7.947E+07
  14    0.643    7.393    0.548   207.107  7.947E+07  7.947E+07
  15    0.690    7.940    0.548   207.107  7.947E+07  7.947E+07
  16    0.738    8.488    0.548   207.107  7.947E+07  7.947E+07
  17    0.786    9.036    0.548   207.107  7.947E+07  7.947E+07
  18    0.833    9.583    0.548   207.107  7.947E+07  7.947E+07
  19    0.881   10.131    0.548   207.107  7.947E+07  7.947E+07
  20    0.929   10.679    0.548   207.107  7.947E+07  7.947E+07
  21    0.976   11.226    0.548   207.107  7.947E+07  7.947E+07


Interpolated blade 1 properties:

Node  BlFract   RNodes  DRNodes PitchAxis  StrcTwst  BMassDen    FlpStff    EdgStff
 (-)      (-)      (m)      (m)       (-)     (deg)    (kg/m)     (Nm^2)     (Nm^2)
   1    0.030    0.568    0.272     0.250     0.000    49.933  2.899E+06  1.119E+06
   2    0.097    0.880    0.352     0.250     0.000    10.233  7.241E+05  2.795E+05
   3    0.174    1.232    0.352     0.250    18.815    15.880  5.884E+05  1.142E+06
   4    0.234    1.509    0.201     0.250    14.372    15.634  5.043E+05  1.150E+06
   5    0.278    1.710    0.201     0.250    11.136    15.118  4.471E+05  1.104E+06
   6    0.325    1.928    0.235     0.250     8.313    14.781  3.995E+05  1.080E+06
   7    0.373    2.146    0.201     0.250     6.288    14.512  3.637E+05  1.050E+06
   8    0.417    2.347    0.201     0.250     4.700    12.372  3.090E+05  8.321E+05
   9    0.460    2.548    0.201     0.250     3.499    11.744  2.642E+05  7.332E+05
  10    0.508    2.766    0.235     0.250     2.529    11.136  2.244E+05  6.395E+05
  11    0.555    2.984    0.201     0.250     1.728    10.634  1.942E+05  5.580E+05
  12    0.599    3.185    0.201     0.250     1.117    10.254  1.734E+05  4.932E+05
  13    0.643    3.386    0.201     0.250     0.685     9.790  1.486E+05  4.321E+05
  14    0.690    3.604    0.235     0.250     0.281     9.313  1.248E+05  3.724E+05
  15    0.737    3.822    0.201     0.250    -0.074     8.851  1.037E+05  3.179E+05
  16    0.781    4.023    0.201     0.250    -0.382     8.414  8.593E+04  2.704E+05
  17    0.825    4.224    0.201     0.250    -0.677     8.010  7.170E+04  2.326E+05
  18    0.863    4.400    0.151     0.250    -0.935     7.651  5.962E+04  1.992E+05
  19    0.902    4.576    0.201     0.250    -1.181     7.291  4.971E+04  1.711E+05
  20    0.945    4.778    0.201     0.250    -1.465     6.888  3.907E+04  1.407E+05
  21    0.984    4.954    0.151     0.250    -1.709     6.536  3.134E+04  1.176E+05


Interpolated blade 2 properties:

Node  BlFract   RNodes  DRNodes PitchAxis  StrcTwst  BMassDen    FlpStff    EdgStff
 (-)      (-)      (m)      (m)       (-)     (deg)    (kg/m)     (Nm^2)     (Nm^2)
   1    0.030    0.568    0.272     0.250     0.000    49.933  2.899E+06  1.119E+06
   2    0.097    0.880    0.352     0.250     0.000    10.233  7.241E+05  2.795E+05
   3    0.174    1.232    0.352     0.250    18.815    15.880  5.884E+05  1.142E+06
   4    0.234    1.509    0.201     0.250    14.372    15.634  5.043E+05  1.150E+06
   5    0.278    1.710    0.201     0.250    11.136    15.118  4.471E+05  1.104E+06
   6    0.325    1.928    0.235     0.250     8.313    14.781  3.995E+05  1.080E+06
   7    0.373    2.146    0.201     0.250     6.288    14.512  3.637E+05  1.050E+06
   8    0.417    2.347    0.201     0.250     4.700    12.372  3.090E+05  8.321E+05
   9    0.460    2.548    0.201     0.250     3.499    11.744  2.642E+05  7.332E+05
  10    0.508    2.766    0.235     0.250     2.529    11.136  2.244E+05  6.395E+05
  11    0.555    2.984    0.201     0.250     1.728    10.634  1.942E+05  5.580E+05
  12    0.599    3.185    0.201     0.250     1.117    10.254  1.734E+05  4.932E+05
  13    0.643    3.386    0.201     0.250     0.685     9.790  1.486E+05  4.321E+05
  14    0.690    3.604    0.235     0.250     0.281     9.313  1.248E+05  3.724E+05
  15    0.737    3.822    0.201     0.250    -0.074     8.851  1.037E+05  3.179E+05
  16    0.781    4.023    0.201     0.250    -0.382     8.414  8.593E+04  2.704E+05
  17    0.825    4.224    0.201     0.250    -0.677     8.010  7.170E+04  2.326E+05
  18    0.863    4.400    0.151     0.250    -0.935     7.651  5.962E+04  1.992E+05
  19    0.902    4.576    0.201     0.250    -1.181     7.291  4.971E+04  1.711E+05
  20    0.945    4.778    0.201     0.250    -1.465     6.888  3.907E+04  1.407E+05
  21    0.984    4.954    0.151     0.250    -1.709     6.536  3.134E+04  1.176E+05


Requested Outputs:


  Col  Parameter  Units
  ---  ---------  -----
   0   Time       (s)       
   1   Azimuth    (deg)     
   2   TipALxb1   (m/s^2)   
   3   TipALyb1   (m/s^2)   
   4   TipALxb2   (m/s^2)   
   5   TipALyb2   (m/s^2)   
   6   Spn2ALxb1  (m/s^2)   
   7   Spn2ALyb1  (m/s^2)   
   8   RotAccel   (deg/s^2) 
   9   LSSGagA    (deg/s^2) 
  10   HSShftA    (deg/s^2) 
  11   NacYaw     (deg)     
  12   RootMEdg1  (kN·m)    
  13   RootMFlp1  (kN·m)    
  14   RootMEdg2  (kN·m)    
  15   RootMFlp2  (kN·m)    
  16   Spn3MLxb1  (kN·m)    
  17   Spn3MLyb1  (kN·m)    
  18   Spn5MLxb1  (kN·m)    
  19   Spn5MLyb1  (kN·m)    
  20   YawBrFxp   (kN)      
  21   YawBrFyp   (kN)      
  22   YawBrMxn   (kN·m)    
  23   YawBrMyn   (kN·m)    
