
This summary information was generated by ElastoDyn (v1.04.00a-bjj, 26-Jul-2016) on 03-Nov-2016 at 13:35:25.


Turbine features:

            Downwind, two-bladed rotor with teetering hub.
            The model has 13 of 22 DOFs active (enabled) at start-up.
 Disabled   Platform horizontal surge translation DOF 
 Disabled   Platform horizontal sway translation DOF 
 Disabled   Platform vertical heave translation DOF 
 Disabled   Platform roll tilt rotation DOF 
 Disabled   Platform pitch tilt rotation DOF 
 Disabled   Platform yaw rotation DOF 
 Enabled    1st tower fore-aft bending mode DOF 
 Enabled    1st tower side-to-side bending mode DOF 
 Enabled    2nd tower fore-aft bending mode DOF 
 Enabled    2nd tower side-to-side bending mode DOF 
 Disabled   Nacelle yaw DOF 
 Disabled   Rotor-furl DOF 
 Enabled    Variable speed generator DOF 
 Enabled    Drivetrain rotational-flexibility DOF 
 Disabled   Tail-furl DOF 
 Enabled    1st flapwise bending-mode DOF of blade 1 
 Enabled    1st edgewise bending-mode DOF of blade 1 
 Enabled    2nd flapwise bending-mode DOF of blade 1 
 Enabled    1st flapwise bending-mode DOF of blade 2 
 Enabled    1st edgewise bending-mode DOF of blade 2 
 Enabled    2nd flapwise bending-mode DOF of blade 2 
 Enabled    Hub teetering DOF 


Time steps:

    Structural            (s)        0.00400000


Some calculated parameters:

    Hub-Height            (m)            42.672
    Flexible Tower Length (m)            41.980
    Flexible Blade Length (m)            12.573


Rotor mass properties:

    Rotor Mass            (kg)         2200.608
    Rotor Inertia         (kg-m^2)    41755.992
                                        Blade 1      Blade 2
                                        -------      -------
    Mass                  (kg)          435.304      435.304
    Second Mass Moment    (kg-m^2)    15434.707    15434.707
    First Mass Moment     (kg-m)       2120.280     2120.280
    Center of Mass        (m)             4.871        4.871


Additional mass properties:

    Tower-top Mass        (kg)         7216.038
    Tower Mass            (kg)        36907.137
    Platform Mass         (kg)            0.000
    Mass Incl. Platform   (kg)        44123.176


Interpolated tower properties:

Node  TwFract   HNodes  DHNodes  TMassDen    FAStiff    SSStiff
 (-)      (-)      (m)      (m)    (kg/m)     (Nm^2)     (Nm^2)
   1    0.024    1.000    1.999   879.160  1.564E+10  1.564E+10
   2    0.071    2.999    1.999   879.160  1.564E+10  1.564E+10
   3    0.119    4.998    1.999   879.160  1.564E+10  1.564E+10
   4    0.167    6.997    1.999   879.160  1.564E+10  1.564E+10
   5    0.214    8.996    1.999   879.160  1.564E+10  1.564E+10
   6    0.262   10.995    1.999   879.160  1.564E+10  1.564E+10
   7    0.310   12.994    1.999   879.160  1.564E+10  1.564E+10
   8    0.357   14.993    1.999   879.160  1.564E+10  1.564E+10
   9    0.405   16.992    1.999   879.160  1.564E+10  1.564E+10
  10    0.452   18.991    1.999   879.160  1.564E+10  1.564E+10
  11    0.500   20.990    1.999   879.160  1.564E+10  1.564E+10
  12    0.548   22.989    1.999   879.160  1.564E+10  1.564E+10
  13    0.595   24.988    1.999   879.160  1.564E+10  1.564E+10
  14    0.643   26.987    1.999   879.160  1.564E+10  1.564E+10
  15    0.690   28.986    1.999   879.160  1.564E+10  1.564E+10
  16    0.738   30.985    1.999   879.160  1.564E+10  1.564E+10
  17    0.786   32.984    1.999   879.160  1.564E+10  1.564E+10
  18    0.833   34.983    1.999   879.160  1.564E+10  1.564E+10
  19    0.881   36.982    1.999   879.160  1.564E+10  1.564E+10
  20    0.929   38.981    1.999   879.160  1.564E+10  1.564E+10
  21    0.976   40.980    1.999   879.160  1.564E+10  1.564E+10


Interpolated blade 1 properties:

Node  BlFract   RNodes  DRNodes PitchAxis  StrcTwst  BMassDen    FlpStff    EdgStff
 (-)      (-)      (m)      (m)       (-)     (deg)    (kg/m)     (Nm^2)     (Nm^2)
   1    0.050    1.813    1.257     0.250    10.500    58.496  2.760E+07  8.618E+07
   2    0.150    3.070    1.257     0.250    10.404    49.105  1.582E+07  9.772E+07
   3    0.250    4.327    1.257     0.250     9.852    48.912  1.043E+07  1.065E+08
   4    0.350    5.585    1.257     0.250     9.096    42.735  6.827E+06  8.982E+07
   5    0.450    6.842    1.257     0.250     7.692    36.024  4.463E+06  6.640E+07
   6    0.550    8.099    1.257     0.250     5.613    30.272  2.821E+06  4.508E+07
   7    0.650    9.356    1.257     0.250     3.575    24.996  1.677E+06  2.751E+07
   8    0.750   10.614    1.257     0.250     1.990    20.925  8.835E+05  1.819E+07
   9    0.850   11.871    1.257     0.250     1.012    16.201  3.821E+05  9.658E+06
  10    0.950   13.128    1.257     0.250     0.395     9.536  1.030E+05  2.780E+06


Interpolated blade 2 properties:

Node  BlFract   RNodes  DRNodes PitchAxis  StrcTwst  BMassDen    FlpStff    EdgStff
 (-)      (-)      (m)      (m)       (-)     (deg)    (kg/m)     (Nm^2)     (Nm^2)
   1    0.050    1.813    1.257     0.250    10.500    58.496  2.760E+07  8.618E+07
   2    0.150    3.070    1.257     0.250    10.404    49.105  1.582E+07  9.772E+07
   3    0.250    4.327    1.257     0.250     9.852    48.912  1.043E+07  1.065E+08
   4    0.350    5.585    1.257     0.250     9.096    42.735  6.827E+06  8.982E+07
   5    0.450    6.842    1.257     0.250     7.692    36.024  4.463E+06  6.640E+07
   6    0.550    8.099    1.257     0.250     5.613    30.272  2.821E+06  4.508E+07
   7    0.650    9.356    1.257     0.250     3.575    24.996  1.677E+06  2.751E+07
   8    0.750   10.614    1.257     0.250     1.990    20.925  8.835E+05  1.819E+07
   9    0.850   11.871    1.257     0.250     1.012    16.201  3.821E+05  9.658E+06
  10    0.950   13.128    1.257     0.250     0.395     9.536  1.030E+05  2.780E+06


Requested Outputs:


  Col  Parameter  Units
  ---  ---------  -----
   0   Time       (s)       
   1   TipDxb1    (m)       
   2   TipDyb1    (m)       
   3   TipRDxb1   (deg)     
   4   TipRDyb1   (deg)     
   5   Spn3ALxb1  (m/s^2)   
   6   Spn3ALyb1  (m/s^2)   
   7   RotSpeed   (rpm)     
   8   LSSGagV    (rpm)     
   9   HSShftV    (rpm)     
  10   RootFxb2   (kN)      
  11   RootFyb2   (kN)      
  12   Spn2MLxb1  (kN·m)    
  13   Spn2MLyb1  (kN·m)    
  14   LSShftTq   (kN·m)    
  15   HSShftTq   (kN·m)    
  16   LSShftPwr  (kW)      
  17   HSShftPwr  (kW)      
  18   YawBrFxn   (kN)      
  19   YawBrFyn   (kN)      
  20   YawBrFzn   (kN)      
