
This summary information was generated by ElastoDyn (v1.04.00a-bjj, 26-Jul-2016) on 03-Nov-2016 at 13:36:55.


Turbine features:

            Upwind, three-bladed rotor with rigid hub.
            The model has 11 of 24 DOFs active (enabled) at start-up.
 Disabled   Platform horizontal surge translation DOF 
 Disabled   Platform horizontal sway translation DOF 
 Disabled   Platform vertical heave translation DOF 
 Disabled   Platform roll tilt rotation DOF 
 Disabled   Platform pitch tilt rotation DOF 
 Disabled   Platform yaw rotation DOF 
 Disabled   1st tower fore-aft bending mode DOF 
 Disabled   1st tower side-to-side bending mode DOF 
 Disabled   2nd tower fore-aft bending mode DOF 
 Disabled   2nd tower side-to-side bending mode DOF 
 Enabled    Nacelle yaw DOF 
 Disabled   Rotor-furl DOF 
 Enabled    Variable speed generator DOF 
 Disabled   Drivetrain rotational-flexibility DOF 
 Disabled   Tail-furl DOF 
 Enabled    1st flapwise bending-mode DOF of blade 1 
 Enabled    1st edgewise bending-mode DOF of blade 1 
 Enabled    2nd flapwise bending-mode DOF of blade 1 
 Enabled    1st flapwise bending-mode DOF of blade 2 
 Enabled    1st edgewise bending-mode DOF of blade 2 
 Enabled    2nd flapwise bending-mode DOF of blade 2 
 Enabled    1st flapwise bending-mode DOF of blade 3 
 Enabled    1st edgewise bending-mode DOF of blade 3 
 Enabled    2nd flapwise bending-mode DOF of blade 3 


Time steps:

    Structural            (s)        0.00100000


Some calculated parameters:

    Hub-Height            (m)            34.619
    Flexible Tower Length (m)            34.000
    Flexible Blade Length (m)             2.597


Rotor mass properties:

    Rotor Mass            (kg)          145.541
    Rotor Inertia         (kg-m^2)      108.808
                                        Blade 1      Blade 2      Blade 3
                                        -------      -------      -------
    Mass                  (kg)           10.847       10.847       10.847
    Second Mass Moment    (kg-m^2)       24.197       24.197       24.197
    First Mass Moment     (kg-m)         14.037       14.037       14.037
    Center of Mass        (m)             1.294        1.294        1.294


Additional mass properties:

    Tower-top Mass        (kg)          406.041
    Tower Mass            (kg)        29891.443
    Platform Mass         (kg)            0.000
    Mass Incl. Platform   (kg)        30297.484


Interpolated tower properties:

Node  TwFract   HNodes  DHNodes  TMassDen    FAStiff    SSStiff
 (-)      (-)      (m)      (m)    (kg/m)     (Nm^2)     (Nm^2)
   1    0.050    1.700    3.400   879.160  1.564E+10  1.564E+10
   2    0.150    5.100    3.400   879.160  1.564E+10  1.564E+10
   3    0.250    8.500    3.400   879.160  1.564E+10  1.564E+10
   4    0.350   11.900    3.400   879.160  1.564E+10  1.564E+10
   5    0.450   15.300    3.400   879.160  1.564E+10  1.564E+10
   6    0.550   18.700    3.400   879.160  1.564E+10  1.564E+10
   7    0.650   22.100    3.400   879.160  1.564E+10  1.564E+10
   8    0.750   25.500    3.400   879.160  1.564E+10  1.564E+10
   9    0.850   28.900    3.400   879.160  1.564E+10  1.564E+10
  10    0.950   32.300    3.400   879.160  1.564E+10  1.564E+10


Interpolated blade 1 properties:

Node  BlFract   RNodes  DRNodes PitchAxis  StrcTwst  BMassDen    FlpStff    EdgStff
 (-)      (-)      (m)      (m)       (-)     (deg)    (kg/m)     (Nm^2)     (Nm^2)
   1    0.033    0.390    0.173     0.250     0.000     4.192  4.530E+03  1.990E+05
   2    0.100    0.563    0.173     0.250     0.000     4.192  4.530E+03  1.990E+05
   3    0.167    0.736    0.173     0.250     0.000     4.192  4.530E+03  1.990E+05
   4    0.233    0.909    0.173     0.250     0.000     4.192  4.530E+03  1.990E+05
   5    0.300    1.082    0.173     0.250     0.000     4.192  4.530E+03  1.990E+05
   6    0.367    1.255    0.173     0.250     0.000     4.192  4.530E+03  1.990E+05
   7    0.433    1.428    0.173     0.250     0.000     4.192  4.530E+03  1.990E+05
   8    0.500    1.602    0.173     0.250     0.000     4.192  4.530E+03  1.990E+05
   9    0.567    1.775    0.173     0.250     0.000     4.192  4.530E+03  1.990E+05
  10    0.633    1.948    0.173     0.250     0.000     4.192  4.530E+03  1.990E+05
  11    0.700    2.121    0.173     0.250     0.000     4.192  4.530E+03  1.990E+05
  12    0.767    2.294    0.173     0.250     0.000     4.192  4.530E+03  1.990E+05
  13    0.833    2.467    0.173     0.250     0.000     4.192  4.530E+03  1.990E+05
  14    0.900    2.640    0.173     0.250     0.000     4.192  4.530E+03  1.990E+05
  15    0.967    2.813    0.173     0.250     0.000     3.963  4.530E+03  1.990E+05


Interpolated blade 2 properties:

Node  BlFract   RNodes  DRNodes PitchAxis  StrcTwst  BMassDen    FlpStff    EdgStff
 (-)      (-)      (m)      (m)       (-)     (deg)    (kg/m)     (Nm^2)     (Nm^2)
   1    0.033    0.390    0.173     0.250     0.000     4.192  4.530E+03  1.990E+05
   2    0.100    0.563    0.173     0.250     0.000     4.192  4.530E+03  1.990E+05
   3    0.167    0.736    0.173     0.250     0.000     4.192  4.530E+03  1.990E+05
   4    0.233    0.909    0.173     0.250     0.000     4.192  4.530E+03  1.990E+05
   5    0.300    1.082    0.173     0.250     0.000     4.192  4.530E+03  1.990E+05
   6    0.367    1.255    0.173     0.250     0.000     4.192  4.530E+03  1.990E+05
   7    0.433    1.428    0.173     0.250     0.000     4.192  4.530E+03  1.990E+05
   8    0.500    1.602    0.173     0.250     0.000     4.192  4.530E+03  1.990E+05
   9    0.567    1.775    0.173     0.250     0.000     4.192  4.530E+03  1.990E+05
  10    0.633    1.948    0.173     0.250     0.000     4.192  4.530E+03  1.990E+05
  11    0.700    2.121    0.173     0.250     0.000     4.192  4.530E+03  1.990E+05
  12    0.767    2.294    0.173     0.250     0.000     4.192  4.530E+03  1.990E+05
  13    0.833    2.467    0.173     0.250     0.000     4.192  4.530E+03  1.990E+05
  14    0.900    2.640    0.173     0.250     0.000     4.192  4.530E+03  1.990E+05
  15    0.967    2.813    0.173     0.250     0.000     3.963  4.530E+03  1.990E+05


Interpolated blade 3 properties:

Node  BlFract   RNodes  DRNodes PitchAxis  StrcTwst  BMassDen    FlpStff    EdgStff
 (-)      (-)      (m)      (m)       (-)     (deg)    (kg/m)     (Nm^2)     (Nm^2)
   1    0.033    0.390    0.173     0.250     0.000     4.192  4.530E+03  1.990E+05
   2    0.100    0.563    0.173     0.250     0.000     4.192  4.530E+03  1.990E+05
   3    0.167    0.736    0.173     0.250     0.000     4.192  4.530E+03  1.990E+05
   4    0.233    0.909    0.173     0.250     0.000     4.192  4.530E+03  1.990E+05
   5    0.300    1.082    0.173     0.250     0.000     4.192  4.530E+03  1.990E+05
   6    0.367    1.255    0.173     0.250     0.000     4.192  4.530E+03  1.990E+05
   7    0.433    1.428    0.173     0.250     0.000     4.192  4.530E+03  1.990E+05
   8    0.500    1.602    0.173     0.250     0.000     4.192  4.530E+03  1.990E+05
   9    0.567    1.775    0.173     0.250     0.000     4.192  4.530E+03  1.990E+05
  10    0.633    1.948    0.173     0.250     0.000     4.192  4.530E+03  1.990E+05
  11    0.700    2.121    0.173     0.250     0.000     4.192  4.530E+03  1.990E+05
  12    0.767    2.294    0.173     0.250     0.000     4.192  4.530E+03  1.990E+05
  13    0.833    2.467    0.173     0.250     0.000     4.192  4.530E+03  1.990E+05
  14    0.900    2.640    0.173     0.250     0.000     4.192  4.530E+03  1.990E+05
  15    0.967    2.813    0.173     0.250     0.000     3.963  4.530E+03  1.990E+05


Requested Outputs:


  Col  Parameter  Units
  ---  ---------  -----
   0   Time       (s)       
   1   TipClrnc1  (m)       
   2   TipClrnc2  (m)       
   3   TipClrnc3  (m)       
   4   RotSpeed   (rpm)     
   5   TailFurlP  (deg)     
   6   TailFurlV  (deg/s)   
   7   TailFurlA  (deg/s^2) 
   8   NacYawP    (deg)     
   9   RotThrust  (kN)      
  10   TFrlBrM    (kN·m)    
