
This summary information was generated by ElastoDyn (v1.04.00a-bjj, 26-Jul-2016) on 03-Nov-2016 at 13:55:06.


Turbine features:

            Upwind, three-bladed rotor with rigid hub.
            The model has 22 of 24 DOFs active (enabled) at start-up.
 Enabled    Platform horizontal surge translation DOF 
 Enabled    Platform horizontal sway translation DOF 
 Enabled    Platform vertical heave translation DOF 
 Enabled    Platform roll tilt rotation DOF 
 Enabled    Platform pitch tilt rotation DOF 
 Enabled    Platform yaw rotation DOF 
 Enabled    1st tower fore-aft bending mode DOF 
 Enabled    1st tower side-to-side bending mode DOF 
 Enabled    2nd tower fore-aft bending mode DOF 
 Enabled    2nd tower side-to-side bending mode DOF 
 Enabled    Nacelle yaw DOF 
 Disabled   Rotor-furl DOF 
 Enabled    Variable speed generator DOF 
 Enabled    Drivetrain rotational-flexibility DOF 
 Disabled   Tail-furl DOF 
 Enabled    1st flapwise bending-mode DOF of blade 1 
 Enabled    1st edgewise bending-mode DOF of blade 1 
 Enabled    2nd flapwise bending-mode DOF of blade 1 
 Enabled    1st flapwise bending-mode DOF of blade 2 
 Enabled    1st edgewise bending-mode DOF of blade 2 
 Enabled    2nd flapwise bending-mode DOF of blade 2 
 Enabled    1st flapwise bending-mode DOF of blade 3 
 Enabled    1st edgewise bending-mode DOF of blade 3 
 Enabled    2nd flapwise bending-mode DOF of blade 3 


Time steps:

    Structural            (s)        0.01250000


Some calculated parameters:

    Hub-Height            (m)            90.000
    Flexible Tower Length (m)            87.600
    Flexible Blade Length (m)            61.500


Rotor mass properties:

    Rotor Mass            (kg)       109389.852
    Rotor Inertia         (kg-m^2) 38677056.000
                                        Blade 1      Blade 2      Blade 3
                                        -------      -------      -------
    Mass                  (kg)        17536.617    17536.617    17536.617
    Second Mass Moment    (kg-m^2) 11752357.000 11752357.000 11752357.000
    First Mass Moment     (kg-m)     362132.781   362132.781   362132.781
    Center of Mass        (m)            20.650       20.650       20.650


Additional mass properties:

    Tower-top Mass        (kg)       349389.844
    Tower Mass            (kg)       347460.250
    Platform Mass         (kg)      8600410.000
    Mass Incl. Platform   (kg)      9297260.000


Interpolated tower properties:

Node  TwFract   HNodes  DHNodes  TMassDen    FAStiff    SSStiff
 (-)      (-)      (m)      (m)    (kg/m)     (Nm^2)     (Nm^2)
   1    0.025    2.190    4.380  5501.260  5.945E+11  5.945E+11
   2    0.075    6.570    4.380  5322.040  5.547E+11  5.547E+11
   3    0.125   10.950    4.380  5145.763  5.169E+11  5.169E+11
   4    0.175   15.330    4.380  4972.427  4.812E+11  4.812E+11
   5    0.225   19.710    4.380  4802.038  4.472E+11  4.472E+11
   6    0.275   24.090    4.380  4634.593  4.152E+11  4.152E+11
   7    0.325   28.470    4.380  4470.090  3.848E+11  3.848E+11
   8    0.375   32.850    4.380  4308.530  3.562E+11  3.562E+11
   9    0.425   37.230    4.380  4149.915  3.292E+11  3.292E+11
  10    0.475   41.610    4.380  3994.245  3.037E+11  3.037E+11
  11    0.525   45.990    4.380  3841.515  2.798E+11  2.798E+11
  12    0.575   50.370    4.380  3691.725  2.573E+11  2.573E+11
  13    0.625   54.750    4.380  3544.880  2.361E+11  2.361E+11
  14    0.675   59.130    4.380  3400.980  2.163E+11  2.163E+11
  15    0.725   63.510    4.380  3260.025  1.978E+11  1.978E+11
  16    0.775   67.890    4.380  3122.015  1.805E+11  1.805E+11
  17    0.825   72.270    4.380  2986.945  1.643E+11  1.643E+11
  18    0.875   76.650    4.380  2854.815  1.493E+11  1.493E+11
  19    0.925   81.030    4.380  2725.630  1.353E+11  1.353E+11
  20    0.975   85.410    4.380  2599.390  1.223E+11  1.223E+11


Interpolated blade 1 properties:

Node  BlFract   RNodes  DRNodes PitchAxis  StrcTwst  BMassDen    FlpStff    EdgStff
 (-)      (-)      (m)      (m)       (-)     (deg)    (kg/m)     (Nm^2)     (Nm^2)
   1    0.029    3.309    3.618     0.253    13.308   787.554  1.823E+10  1.952E+10
   2    0.088    6.926    3.618     0.294    13.308   464.487  7.021E+09  9.977E+09
   3    0.147   10.544    3.618     0.339    13.308   414.917  4.944E+09  6.990E+09
   4    0.206   14.162    3.618     0.375    12.545   412.664  3.178E+09  6.695E+09
   5    0.265   17.779    3.618     0.375    10.770   361.957  2.263E+09  4.796E+09
   6    0.324   21.397    3.618     0.375     9.757   346.452  1.862E+09  4.283E+09
   7    0.382   25.015    3.618     0.375     8.731   330.982  1.440E+09  3.835E+09
   8    0.441   28.632    3.618     0.375     7.647   304.395  9.968E+08  3.304E+09
   9    0.500   32.250    3.618     0.375     6.549   272.375  6.410E+08  2.685E+09
  10    0.559   35.868    3.618     0.375     5.498   250.787  4.010E+08  2.292E+09
  11    0.618   39.485    3.618     0.375     4.462   211.669  2.468E+08  1.610E+09
  12    0.676   43.103    3.618     0.375     3.482   177.049  1.409E+08  1.225E+09
  13    0.735   46.721    3.618     0.375     2.693   153.160  9.890E+07  9.067E+08
  14    0.794   50.338    3.618     0.375     1.993   128.005  7.145E+07  6.486E+08
  15    0.853   53.956    3.618     0.375     1.292   102.116  4.819E+07  4.472E+08
  16    0.912   57.574    3.618     0.375     0.598    77.547  3.095E+07  3.109E+08
  17    0.971   61.191    3.618     0.375     0.141    51.403  1.013E+07  1.019E+08


Interpolated blade 2 properties:

Node  BlFract   RNodes  DRNodes PitchAxis  StrcTwst  BMassDen    FlpStff    EdgStff
 (-)      (-)      (m)      (m)       (-)     (deg)    (kg/m)     (Nm^2)     (Nm^2)
   1    0.029    3.309    3.618     0.253    13.308   787.554  1.823E+10  1.952E+10
   2    0.088    6.926    3.618     0.294    13.308   464.487  7.021E+09  9.977E+09
   3    0.147   10.544    3.618     0.339    13.308   414.917  4.944E+09  6.990E+09
   4    0.206   14.162    3.618     0.375    12.545   412.664  3.178E+09  6.695E+09
   5    0.265   17.779    3.618     0.375    10.770   361.957  2.263E+09  4.796E+09
   6    0.324   21.397    3.618     0.375     9.757   346.452  1.862E+09  4.283E+09
   7    0.382   25.015    3.618     0.375     8.731   330.982  1.440E+09  3.835E+09
   8    0.441   28.632    3.618     0.375     7.647   304.395  9.968E+08  3.304E+09
   9    0.500   32.250    3.618     0.375     6.549   272.375  6.410E+08  2.685E+09
  10    0.559   35.868    3.618     0.375     5.498   250.787  4.010E+08  2.292E+09
  11    0.618   39.485    3.618     0.375     4.462   211.669  2.468E+08  1.610E+09
  12    0.676   43.103    3.618     0.375     3.482   177.049  1.409E+08  1.225E+09
  13    0.735   46.721    3.618     0.375     2.693   153.160  9.890E+07  9.067E+08
  14    0.794   50.338    3.618     0.375     1.993   128.005  7.145E+07  6.486E+08
  15    0.853   53.956    3.618     0.375     1.292   102.116  4.819E+07  4.472E+08
  16    0.912   57.574    3.618     0.375     0.598    77.547  3.095E+07  3.109E+08
  17    0.971   61.191    3.618     0.375     0.141    51.403  1.013E+07  1.019E+08


Interpolated blade 3 properties:

Node  BlFract   RNodes  DRNodes PitchAxis  StrcTwst  BMassDen    FlpStff    EdgStff
 (-)      (-)      (m)      (m)       (-)     (deg)    (kg/m)     (Nm^2)     (Nm^2)
   1    0.029    3.309    3.618     0.253    13.308   787.554  1.823E+10  1.952E+10
   2    0.088    6.926    3.618     0.294    13.308   464.487  7.021E+09  9.977E+09
   3    0.147   10.544    3.618     0.339    13.308   414.917  4.944E+09  6.990E+09
   4    0.206   14.162    3.618     0.375    12.545   412.664  3.178E+09  6.695E+09
   5    0.265   17.779    3.618     0.375    10.770   361.957  2.263E+09  4.796E+09
   6    0.324   21.397    3.618     0.375     9.757   346.452  1.862E+09  4.283E+09
   7    0.382   25.015    3.618     0.375     8.731   330.982  1.440E+09  3.835E+09
   8    0.441   28.632    3.618     0.375     7.647   304.395  9.968E+08  3.304E+09
   9    0.500   32.250    3.618     0.375     6.549   272.375  6.410E+08  2.685E+09
  10    0.559   35.868    3.618     0.375     5.498   250.787  4.010E+08  2.292E+09
  11    0.618   39.485    3.618     0.375     4.462   211.669  2.468E+08  1.610E+09
  12    0.676   43.103    3.618     0.375     3.482   177.049  1.409E+08  1.225E+09
  13    0.735   46.721    3.618     0.375     2.693   153.160  9.890E+07  9.067E+08
  14    0.794   50.338    3.618     0.375     1.993   128.005  7.145E+07  6.486E+08
  15    0.853   53.956    3.618     0.375     1.292   102.116  4.819E+07  4.472E+08
  16    0.912   57.574    3.618     0.375     0.598    77.547  3.095E+07  3.109E+08
  17    0.971   61.191    3.618     0.375     0.141    51.403  1.013E+07  1.019E+08


Requested Outputs:


  Col  Parameter  Units
  ---  ---------  -----
   0   Time       (s)       
   1   BldPitch1  (deg)     
   2   BldPitch2  (deg)     
   3   BldPitch3  (deg)     
   4   Azimuth    (deg)     
   5   RotSpeed   (rpm)     
   6   GenSpeed   (rpm)     
   7   NacYaw     (deg)     
   8   OoPDefl1   (m)       
   9   IPDefl1    (m)       
  10   TwstDefl1  (deg)     
  11   OoPDefl2   (m)       
  12   IPDefl2    (m)       
  13   TwstDefl2  (deg)     
  14   OoPDefl3   (m)       
  15   IPDefl3    (m)       
  16   TwstDefl3  (deg)     
  17   TwrClrnc1  (m)       
  18   TwrClrnc2  (m)       
  19   TwrClrnc3  (m)       
  20   NcIMUTAxs  (m/s^2)   
  21   NcIMUTAys  (m/s^2)   
  22   NcIMUTAzs  (m/s^2)   
  23   TTDspFA    (m)       
  24   TTDspSS    (m)       
  25   TTDspTwst  (deg)     
  26   PtfmSurge  (m)       
  27   PtfmSway   (m)       
  28   PtfmHeave  (m)       
  29   PtfmRoll   (deg)     
  30   PtfmPitch  (deg)     
  31   PtfmYaw    (deg)     
  32   PtfmTAxt   (m/s^2)   
  33   PtfmTAyt   (m/s^2)   
  34   PtfmTAzt   (m/s^2)   
  35   RootFxc1   (kN)      
  36   RootFyc1   (kN)      
  37   RootFzc1   (kN)      
  38   RootMxc1   (kN·m)    
  39   RootMyc1   (kN·m)    
  40   RootMzc1   (kN·m)    
  41   RootFxc2   (kN)      
  42   RootFyc2   (kN)      
  43   RootFzc2   (kN)      
  44   RootMxc2   (kN·m)    
  45   RootMyc2   (kN·m)    
  46   RootMzc2   (kN·m)    
  47   RootFxc3   (kN)      
  48   RootFyc3   (kN)      
  49   RootFzc3   (kN)      
  50   RootMxc3   (kN·m)    
  51   RootMyc3   (kN·m)    
  52   RootMzc3   (kN·m)    
  53   Spn1MLxb1  (kN·m)    
  54   Spn1MLyb1  (kN·m)    
  55   Spn1MLzb1  (kN·m)    
  56   Spn1MLxb2  (kN·m)    
  57   Spn1MLyb2  (kN·m)    
  58   Spn1MLzb2  (kN·m)    
  59   Spn1MLxb3  (kN·m)    
  60   Spn1MLyb3  (kN·m)    
  61   Spn1MLzb3  (kN·m)    
  62   RotThrust  (kN)      
  63   LSSGagFya  (kN)      
  64   LSSGagFza  (kN)      
  65   RotTorq    (kN·m)    
  66   LSSGagMya  (kN·m)    
  67   LSSGagMza  (kN·m)    
  68   YawBrFxp   (kN)      
  69   YawBrFyp   (kN)      
  70   YawBrFzp   (kN)      
  71   YawBrMxp   (kN·m)    
  72   YawBrMyp   (kN·m)    
  73   YawBrMzp   (kN·m)    
  74   TwrBsFxt   (kN)      
  75   TwrBsFyt   (kN)      
  76   TwrBsFzt   (kN)      
  77   TwrBsMxt   (kN·m)    
  78   TwrBsMyt   (kN·m)    
  79   TwrBsMzt   (kN·m)    
  80   TwHt1MLxt  (kN·m)    
  81   TwHt1MLyt  (kN·m)    
  82   TwHt1MLzt  (kN·m)    
