
This summary information was generated by ElastoDyn on 25-Jun-2024 at 12:48:22.


Turbine features:

            Upwind, 3-bladed rotor with rigid hub.
            The model has 15 of 24 DOFs active (enabled) at start-up.
 Disabled   Platform horizontal surge translation DOF 
 Disabled   Platform horizontal sway translation DOF 
 Disabled   Platform vertical heave translation DOF 
 Disabled   Platform roll tilt rotation DOF 
 Disabled   Platform pitch tilt rotation DOF 
 Disabled   Platform yaw rotation DOF 
 Enabled    1st tower fore-aft bending mode DOF 
 Enabled    1st tower side-to-side bending mode DOF 
 Enabled    2nd tower fore-aft bending mode DOF 
 Enabled    2nd tower side-to-side bending mode DOF 
 Disabled   Nacelle yaw DOF 
 Disabled   Rotor-furl DOF 
 Enabled    Variable speed generator DOF 
 Enabled    Drivetrain rotational-flexibility DOF 
 Disabled   Tail-furl DOF 
 Enabled    1st flapwise bending-mode DOF of blade 1 
 Enabled    1st edgewise bending-mode DOF of blade 1 
 Enabled    2nd flapwise bending-mode DOF of blade 1 
 Enabled    1st flapwise bending-mode DOF of blade 2 
 Enabled    1st edgewise bending-mode DOF of blade 2 
 Enabled    2nd flapwise bending-mode DOF of blade 2 
 Enabled    1st flapwise bending-mode DOF of blade 3 
 Enabled    1st edgewise bending-mode DOF of blade 3 
 Enabled    2nd flapwise bending-mode DOF of blade 3 


Time steps:

    Structural            (s)        0.01000000


Some calculated parameters:

    Hub-Height            (m)            90.000
    Flexible Tower Length (m)            87.600
    Flexible Blade Length (m)            61.500


Rotor mass properties:

    Rotor Mass            (kg)       109389.842
    Rotor Inertia         (kg-m^2) 38677040.613
                                        Blade 1      Blade 2      Blade 3
                                        -------      -------      -------
    Mass                  (kg)        17536.614    17536.614    17536.614
    Second Mass Moment    (kg-m^2) 11752352.265 11752352.265 11752352.265
    First Mass Moment     (kg-m)     362132.653   362132.653   362132.653
    Center of Mass        (m)            20.650       20.650       20.650


Additional mass properties:

    Tower-top Mass        (kg)       349389.842
    Tower Mass            (kg)       347460.232
    Platform Mass         (kg)      5452000.000
    Mass Incl. Platform   (kg)      6148850.074


Interpolated tower properties:

Node  TwFract   HNodes  DHNodes  TMassDen    FAStiff    SSStiff
 (-)      (-)      (m)      (m)    (kg/m)     (Nm^2)     (Nm^2)
   1    0.025    2.190    4.380  5501.260  5.945E+11  5.945E+11
   2    0.075    6.570    4.380  5322.040  5.547E+11  5.547E+11
   3    0.125   10.950    4.380  5145.763  5.169E+11  5.169E+11
   4    0.175   15.330    4.380  4972.428  4.812E+11  4.812E+11
   5    0.225   19.710    4.380  4802.038  4.472E+11  4.472E+11
   6    0.275   24.090    4.380  4634.592  4.152E+11  4.152E+11
   7    0.325   28.470    4.380  4470.090  3.848E+11  3.848E+11
   8    0.375   32.850    4.380  4308.530  3.562E+11  3.562E+11
   9    0.425   37.230    4.380  4149.915  3.292E+11  3.292E+11
  10    0.475   41.610    4.380  3994.245  3.037E+11  3.037E+11
  11    0.525   45.990    4.380  3841.515  2.798E+11  2.798E+11
  12    0.575   50.370    4.380  3691.725  2.573E+11  2.573E+11
  13    0.625   54.750    4.380  3544.880  2.361E+11  2.361E+11
  14    0.675   59.130    4.380  3400.980  2.163E+11  2.163E+11
  15    0.725   63.510    4.380  3260.025  1.978E+11  1.978E+11
  16    0.775   67.890    4.380  3122.015  1.805E+11  1.805E+11
  17    0.825   72.270    4.380  2986.945  1.643E+11  1.643E+11
  18    0.875   76.650    4.380  2854.815  1.493E+11  1.493E+11
  19    0.925   81.030    4.380  2725.630  1.353E+11  1.353E+11
  20    0.975   85.410    4.380  2599.390  1.223E+11  1.223E+11


Interpolated blade 1 properties:

Node  BlFract   RNodes  DRNodes PitchAxis  StrcTwst  BMassDen    FlpStff    EdgStff
 (-)      (-)      (m)      (m)       (-)     (deg)    (kg/m)     (Nm^2)     (Nm^2)
   1    0.029    3.309    3.618     0.253    13.308   787.554  1.823E+10  1.952E+10
   2    0.088    6.926    3.618     0.294    13.308   464.487  7.021E+09  9.977E+09
   3    0.147   10.544    3.618     0.339    13.308   414.917  4.944E+09  6.990E+09
   4    0.206   14.162    3.618     0.375    12.545   412.664  3.178E+09  6.695E+09
   5    0.265   17.779    3.618     0.375    10.770   361.957  2.263E+09  4.796E+09
   6    0.324   21.397    3.618     0.375     9.757   346.452  1.862E+09  4.283E+09
   7    0.382   25.015    3.618     0.375     8.731   330.982  1.440E+09  3.835E+09
   8    0.441   28.632    3.618     0.375     7.647   304.395  9.968E+08  3.304E+09
   9    0.500   32.250    3.618     0.375     6.549   272.375  6.410E+08  2.685E+09
  10    0.559   35.868    3.618     0.375     5.498   250.787  4.010E+08  2.292E+09
  11    0.618   39.485    3.618     0.375     4.462   211.668  2.468E+08  1.610E+09
  12    0.676   43.103    3.618     0.375     3.482   177.049  1.409E+08  1.225E+09
  13    0.735   46.721    3.618     0.375     2.693   153.160  9.890E+07  9.067E+08
  14    0.794   50.338    3.618     0.375     1.993   128.005  7.145E+07  6.486E+08
  15    0.853   53.956    3.618     0.375     1.292   102.116  4.819E+07  4.472E+08
  16    0.912   57.574    3.618     0.375     0.598    77.547  3.095E+07  3.109E+08
  17    0.971   61.191    3.618     0.375     0.141    51.403  1.013E+07  1.019E+08


Interpolated blade 2 properties:

Node  BlFract   RNodes  DRNodes PitchAxis  StrcTwst  BMassDen    FlpStff    EdgStff
 (-)      (-)      (m)      (m)       (-)     (deg)    (kg/m)     (Nm^2)     (Nm^2)
   1    0.029    3.309    3.618     0.253    13.308   787.554  1.823E+10  1.952E+10
   2    0.088    6.926    3.618     0.294    13.308   464.487  7.021E+09  9.977E+09
   3    0.147   10.544    3.618     0.339    13.308   414.917  4.944E+09  6.990E+09
   4    0.206   14.162    3.618     0.375    12.545   412.664  3.178E+09  6.695E+09
   5    0.265   17.779    3.618     0.375    10.770   361.957  2.263E+09  4.796E+09
   6    0.324   21.397    3.618     0.375     9.757   346.452  1.862E+09  4.283E+09
   7    0.382   25.015    3.618     0.375     8.731   330.982  1.440E+09  3.835E+09
   8    0.441   28.632    3.618     0.375     7.647   304.395  9.968E+08  3.304E+09
   9    0.500   32.250    3.618     0.375     6.549   272.375  6.410E+08  2.685E+09
  10    0.559   35.868    3.618     0.375     5.498   250.787  4.010E+08  2.292E+09
  11    0.618   39.485    3.618     0.375     4.462   211.668  2.468E+08  1.610E+09
  12    0.676   43.103    3.618     0.375     3.482   177.049  1.409E+08  1.225E+09
  13    0.735   46.721    3.618     0.375     2.693   153.160  9.890E+07  9.067E+08
  14    0.794   50.338    3.618     0.375     1.993   128.005  7.145E+07  6.486E+08
  15    0.853   53.956    3.618     0.375     1.292   102.116  4.819E+07  4.472E+08
  16    0.912   57.574    3.618     0.375     0.598    77.547  3.095E+07  3.109E+08
  17    0.971   61.191    3.618     0.375     0.141    51.403  1.013E+07  1.019E+08


Interpolated blade 3 properties:

Node  BlFract   RNodes  DRNodes PitchAxis  StrcTwst  BMassDen    FlpStff    EdgStff
 (-)      (-)      (m)      (m)       (-)     (deg)    (kg/m)     (Nm^2)     (Nm^2)
   1    0.029    3.309    3.618     0.253    13.308   787.554  1.823E+10  1.952E+10
   2    0.088    6.926    3.618     0.294    13.308   464.487  7.021E+09  9.977E+09
   3    0.147   10.544    3.618     0.339    13.308   414.917  4.944E+09  6.990E+09
   4    0.206   14.162    3.618     0.375    12.545   412.664  3.178E+09  6.695E+09
   5    0.265   17.779    3.618     0.375    10.770   361.957  2.263E+09  4.796E+09
   6    0.324   21.397    3.618     0.375     9.757   346.452  1.862E+09  4.283E+09
   7    0.382   25.015    3.618     0.375     8.731   330.982  1.440E+09  3.835E+09
   8    0.441   28.632    3.618     0.375     7.647   304.395  9.968E+08  3.304E+09
   9    0.500   32.250    3.618     0.375     6.549   272.375  6.410E+08  2.685E+09
  10    0.559   35.868    3.618     0.375     5.498   250.787  4.010E+08  2.292E+09
  11    0.618   39.485    3.618     0.375     4.462   211.668  2.468E+08  1.610E+09
  12    0.676   43.103    3.618     0.375     3.482   177.049  1.409E+08  1.225E+09
  13    0.735   46.721    3.618     0.375     2.693   153.160  9.890E+07  9.067E+08
  14    0.794   50.338    3.618     0.375     1.993   128.005  7.145E+07  6.486E+08
  15    0.853   53.956    3.618     0.375     1.292   102.116  4.819E+07  4.472E+08
  16    0.912   57.574    3.618     0.375     0.598    77.547  3.095E+07  3.109E+08
  17    0.971   61.191    3.618     0.375     0.141    51.403  1.013E+07  1.019E+08


Requested Outputs:


 Col   Parameter            Units               
 ---   ---------------      ---------------     
   0   Time                 (s)                 
   1   BldPitch1            (deg)               
   2   Azimuth              (deg)               
   3   RotSpeed             (rpm)               
   4   GenSpeed             (rpm)               
   5   NacYaw               (deg)               
   6   NcIMUTAxs            (m/s^2)             
   7   NcIMUTAys            (m/s^2)             
   8   NcIMUTAzs            (m/s^2)             
   9   TTDspFA              (m)                 
  10   TTDspSS              (m)                 
  11   TTDspTwst            (deg)               
  12   PtfmSurge            (m)                 
  13   PtfmSway             (m)                 
  14   PtfmHeave            (m)                 
  15   PtfmRoll             (deg)               
  16   PtfmPitch            (deg)               
  17   PtfmYaw              (deg)               
  18   PtfmTAxt             (m/s^2)             
  19   PtfmTAyt             (m/s^2)             
  20   PtfmTAzt             (m/s^2)             
  21   RotThrust            (kN)                
  22   LSSGagFya            (kN)                
  23   LSSGagFza            (kN)                
  24   RotTorq              (kN-m)              
  25   LSSGagMya            (kN-m)              
  26   LSSGagMza            (kN-m)              
  27   YawBrFxp             (kN)                
  28   YawBrFyp             (kN)                
  29   YawBrFzp             (kN)                
  30   YawBrMxp             (kN-m)              
  31   YawBrMyp             (kN-m)              
  32   YawBrMzp             (kN-m)              
  33   TwrBsFxt             (kN)                
  34   TwrBsFyt             (kN)                
  35   TwrBsFzt             (kN)                
  36   TwrBsMxt             (kN-m)              
  37   TwrBsMyt             (kN-m)              
  38   TwrBsMzt             (kN-m)              
  39   TwHt1MLxt            INVALID             
  40   TwHt1MLyt            INVALID             
  41   TwHt1MLzt            INVALID             


  Requested Output Channels at each blade station:
 Col   Parameter            Units               
 ---   ---------------      ---------------     
