
This summary information was generated by AeroDyn on 25-Jun-2024 at 12:48:22.

======  General Options  ============================================================================
            0  WakeMod        - Type of wake/induction model: steady
            1  TwrPotent      - Type of tower influence on wind based on potential flow around the tower: baseline potential flow
            0  TwrShadow      - Type of tower influence on wind based on downstream tower shadow: none
            T  TwrAero        - Calculate tower aerodynamic loads? Yes
            F  CavitCheck     - Perform cavitation check? No
            F  Buoyancy       - Include buoyancy effects? No
======================== Unsteady Airfoil Aerodynamics Options  =====================================
            0  UA_Mod         - Unsteady Aero Model: none (quasi-steady airfoil aerodynamics)
            T  FLookup        - Use a lookup for f'? Yes
======  Outputs  ====================================================================================
            3  NBlOuts        - Number of blade nodes selected for output
           19  NumBlNds       - Number of blade nodes in the analysis
               Blade nodes selected for output:  Output node  Analysis node
                                                 -----------  -------------
                                                           1              1
                                                           2              9
                                                           3             19
            0  NTwOuts        - Number of tower nodes selected for output

               Requested Output Channels:
                Col   Parameter            Units               
                ---   ---------------      ---------------     
                  0   Time                 (s)                 
                  1   RtFldFxh             (N)                 
                  2   RtFldFyh             (N)                 
                  3   RtFldFzh             (N)                 
                  4   RtFldMxh             (N-m)               
                  5   RtFldMyh             (N-m)               
                  6   RtFldMzh             (N-m)               
                  7   RtVAvgxh             (m/s)               
                  8   RtFldCp              (-)                 
                  9   RtFldCt              (-)                 
                 10   RtArea               (m^2)               
                 11   RtSpeed              (rpm)               
                 12   RtTSR                (-)                 


               Requested Output Channels at each blade station:
                Col   Parameter            Units               
                ---   ---------------      ---------------     


Buoyancy parameters:

Hub volume (m^3):           0.000
Nacelle volume (m^3):       0.000
Total blade volume (m^3):   0.000
Tower volume (m^3):         0.000
