
This file was generated by AeroDyn14 (v14.05.01a-bjj, 25-Jul-2016) on 03-Nov-2016 at 13:35:32.

Inputs read in from the AeroDyn input file:
AOC aerodynamic parameters for FAST Certification Test #6.

           SI  SysUnits       - Units for input and output         
       STEADY  StallMod       - Dynamic stall model                 [NO Dynamic stall]
        NO_CM  UseCm          - Aerodynamic pitching moment model   [NO Pitching Moments calculated]
        EQUIL  InfModel       - Inflow model                        [Equilibrium]
        SWIRL  IndModel       - Induction factor model              [Normal and Radial flow induction factors calculated]
   5.0000E-03  AToler         - Convergence tolerance for induction factor
        PRAND  TLModel        - Tip-loss model                      [Prandtl model]
        PRAND  HLModel        - Hub-loss model                      [Prandtl model]
   2.5000E+01  HH             - Wind reference (hub) height, m
   3.0000E-01  TwrShad        - Tower shadow centerline velocity deficit
   2.0000E-01  ShadHWid       - Tower shadow half width, m
   1.3410E+00  T_Shad_Refpt   - Tower shadow reference point, m
   9.5260E-01  AirDens        - Air density, kg/m^3
   1.4639E-05  KinVisc        - Kinematic air viscosity, m^2/sec
   5.0000E-03  DTAERO         - Time interval for aerodynamic calculations, sec
            5  NumFoil        - Number of airfoil files used. Files listed below:
".\AOC/AeroData/S814_1.dat"
".\AOC/AeroData/S814_15.dat"
".\AOC/AeroData/S812_15.dat"
".\AOC/AeroData/S812_2.dat"
".\AOC/AeroData/S813_15.dat"
           10  BldNodes       - Number of blade elements per blade

     Element     RELM       Twist       DR        Chord      NFoil     Print?    Tip-loss   Hub-loss 
       (-)        (m)       (deg)       (m)        (m)        (-)     (Yes/No)   constant   constant 
   ---------- ---------- ---------- ---------- ---------- ---------- ---------- ---------- ----------
            1    0.51500    7.69000    0.47000    0.49400          1         No   20.31553    1.25893
            2    1.12400    5.04000    0.74800    0.57900          1         No    8.49555    4.52143
            3    1.87400    4.60000    0.75200    0.68000          1         No    4.49520    8.53929
            4    2.62400    4.26000    0.74800    0.74400          1         No    2.78163   12.55715
            5    3.37400    3.85000    0.75200    0.73800          2         No    1.82988   16.57500
            6    4.12000    3.15000    0.74000    0.67700          2         No    1.22694   20.57143
            7    4.87000    2.45000    0.76000    0.61600          3         No    0.80698   24.58929
            8    5.62000    1.75000    0.74000    0.55800          3         No    0.49911   28.60714
            9    6.37000    1.05000    0.76000    0.49700          5         No    0.26374   32.62500
           10    7.12000    0.35000    0.74000    0.43600          5         No    0.07795   36.64286


 Rotor radius     =   7.449 m
 Hub radius       =   0.278 m
 Number of blades =   3
