
This summary information was generated by ElastoDyn (v1.04.00a-bjj, 26-Jul-2016) on 03-Nov-2016 at 13:35:32.


Turbine features:

            Downwind, three-bladed rotor with rigid hub.
            The model has 11 of 24 DOFs active (enabled) at start-up.
 Disabled   Platform horizontal surge translation DOF 
 Disabled   Platform horizontal sway translation DOF 
 Disabled   Platform vertical heave translation DOF 
 Disabled   Platform roll tilt rotation DOF 
 Disabled   Platform pitch tilt rotation DOF 
 Disabled   Platform yaw rotation DOF 
 Disabled   1st tower fore-aft bending mode DOF 
 Disabled   1st tower side-to-side bending mode DOF 
 Disabled   2nd tower fore-aft bending mode DOF 
 Disabled   2nd tower side-to-side bending mode DOF 
 Disabled   Nacelle yaw DOF 
 Disabled   Rotor-furl DOF 
 Enabled    Variable speed generator DOF 
 Enabled    Drivetrain rotational-flexibility DOF 
 Disabled   Tail-furl DOF 
 Enabled    1st flapwise bending-mode DOF of blade 1 
 Enabled    1st edgewise bending-mode DOF of blade 1 
 Enabled    2nd flapwise bending-mode DOF of blade 1 
 Enabled    1st flapwise bending-mode DOF of blade 2 
 Enabled    1st edgewise bending-mode DOF of blade 2 
 Enabled    2nd flapwise bending-mode DOF of blade 2 
 Enabled    1st flapwise bending-mode DOF of blade 3 
 Enabled    1st edgewise bending-mode DOF of blade 3 
 Enabled    2nd flapwise bending-mode DOF of blade 3 


Time steps:

    Structural            (s)        0.00500000


Some calculated parameters:

    Hub-Height            (m)            25.000
    Flexible Tower Length (m)            24.400
    Flexible Blade Length (m)             7.210


Rotor mass properties:

    Rotor Mass            (kg)          679.966
    Rotor Inertia         (kg-m^2)     6323.620
                                        Blade 1      Blade 2      Blade 3
                                        -------      -------      -------
    Mass                  (kg)          144.222      144.222      144.222
    Second Mass Moment    (kg-m^2)     1883.407     1883.407     1883.407
    First Mass Moment     (kg-m)        416.806      416.806      416.806
    Center of Mass        (m)             2.890        2.890        2.890


Additional mass properties:

    Tower-top Mass        (kg)         2426.966
    Tower Mass            (kg)         3215.980
    Platform Mass         (kg)            0.000
    Mass Incl. Platform   (kg)         5642.946


Interpolated tower properties:

Node  TwFract   HNodes  DHNodes  TMassDen    FAStiff    SSStiff
 (-)      (-)      (m)      (m)    (kg/m)     (Nm^2)     (Nm^2)
   1    0.045    1.109    2.218   146.827  2.245E+09  2.245E+09
   2    0.136    3.327    2.218   139.482  2.033E+09  2.033E+09
   3    0.227    5.545    2.218   134.673  1.817E+09  1.817E+09
   4    0.318    7.764    2.218   131.927  1.608E+09  1.608E+09
   5    0.409    9.982    2.218   130.664  1.399E+09  1.399E+09
   6    0.500   12.200    2.218   130.300  1.190E+09  1.190E+09
   7    0.591   14.418    2.218   130.300  9.782E+08  9.782E+08
   8    0.682   16.636    2.218   129.891  7.680E+08  7.680E+08
   9    0.773   18.855    2.218   128.636  5.573E+08  5.573E+08
  10    0.864   21.073    2.218   125.909  3.464E+08  3.464E+08
  11    0.955   23.291    2.218   121.218  1.355E+08  1.355E+08


Interpolated blade 1 properties:

Node  BlFract   RNodes  DRNodes PitchAxis  StrcTwst  BMassDen    FlpStff    EdgStff
 (-)      (-)      (m)      (m)       (-)     (deg)    (kg/m)     (Nm^2)     (Nm^2)
   1    0.033    0.515    0.470     0.250     6.927    44.476  7.425E+06  8.530E+06
   2    0.117    1.124    0.748     0.250     5.232    31.542  5.211E+06  1.047E+07
   3    0.221    1.874    0.752     0.250     4.586    21.935  2.528E+06  1.134E+07
   4    0.325    2.624    0.748     0.250     4.210    21.911  1.792E+06  1.226E+07
   5    0.429    3.374    0.752     0.250     3.718    18.352  1.250E+06  9.626E+06
   6    0.533    4.120    0.740     0.250     3.025    16.406  7.610E+05  5.224E+06
   7    0.637    4.870    0.760     0.250     2.304    14.411  4.079E+05  3.285E+06
   8    0.741    5.620    0.740     0.250     1.576    11.911  1.820E+05  1.864E+06
   9    0.845    6.370    0.760     0.250     0.968    10.735  7.048E+04  1.055E+06
  10    0.949    7.120    0.740     0.250     0.545     9.560  4.298E+04  7.780E+05


Interpolated blade 2 properties:

Node  BlFract   RNodes  DRNodes PitchAxis  StrcTwst  BMassDen    FlpStff    EdgStff
 (-)      (-)      (m)      (m)       (-)     (deg)    (kg/m)     (Nm^2)     (Nm^2)
   1    0.033    0.515    0.470     0.250     6.927    44.476  7.425E+06  8.530E+06
   2    0.117    1.124    0.748     0.250     5.232    31.542  5.211E+06  1.047E+07
   3    0.221    1.874    0.752     0.250     4.586    21.935  2.528E+06  1.134E+07
   4    0.325    2.624    0.748     0.250     4.210    21.911  1.792E+06  1.226E+07
   5    0.429    3.374    0.752     0.250     3.718    18.352  1.250E+06  9.626E+06
   6    0.533    4.120    0.740     0.250     3.025    16.406  7.610E+05  5.224E+06
   7    0.637    4.870    0.760     0.250     2.304    14.411  4.079E+05  3.285E+06
   8    0.741    5.620    0.740     0.250     1.576    11.911  1.820E+05  1.864E+06
   9    0.845    6.370    0.760     0.250     0.968    10.735  7.048E+04  1.055E+06
  10    0.949    7.120    0.740     0.250     0.545     9.560  4.298E+04  7.780E+05


Interpolated blade 3 properties:

Node  BlFract   RNodes  DRNodes PitchAxis  StrcTwst  BMassDen    FlpStff    EdgStff
 (-)      (-)      (m)      (m)       (-)     (deg)    (kg/m)     (Nm^2)     (Nm^2)
   1    0.033    0.515    0.470     0.250     6.927    44.476  7.425E+06  8.530E+06
   2    0.117    1.124    0.748     0.250     5.232    31.542  5.211E+06  1.047E+07
   3    0.221    1.874    0.752     0.250     4.586    21.935  2.528E+06  1.134E+07
   4    0.325    2.624    0.748     0.250     4.210    21.911  1.792E+06  1.226E+07
   5    0.429    3.374    0.752     0.250     3.718    18.352  1.250E+06  9.626E+06
   6    0.533    4.120    0.740     0.250     3.025    16.406  7.610E+05  5.224E+06
   7    0.637    4.870    0.760     0.250     2.304    14.411  4.079E+05  3.285E+06
   8    0.741    5.620    0.740     0.250     1.576    11.911  1.820E+05  1.864E+06
   9    0.845    6.370    0.760     0.250     0.968    10.735  7.048E+04  1.055E+06
  10    0.949    7.120    0.740     0.250     0.545     9.560  4.298E+04  7.780E+05


Requested Outputs:


  Col  Parameter  Units
  ---  ---------  -----
   0   Time       (s)       
   1   TipDxb3    (m)       
   2   TipDyb3    (m)       
   3   TipRDxb3   (deg)     
   4   TipRDyb3   (deg)     
   5   Spn5ALxb1  (m/s^2)   
   6   Spn5ALyb1  (m/s^2)   
   7   RotSpeed   (rpm)     
   8   LSSGagV    (rpm)     
   9   HSShftV    (rpm)     
  10   RootFxb3   (kN)      
  11   RootFyb3   (kN)      
  12   RootMEdg3  (kN·m)    
  13   RootMFlp3  (kN·m)    
  14   Spn4MLxb1  (kN·m)    
  15   Spn4MLyb1  (kN·m)    
  16   LSSGagFxs  (kN)      
  17   LSSGagFys  (kN)      
  18   LSSGagFzs  (kN)      
  19   LSShftTq   (kN·m)    
  20   HSShftTq   (kN·m)    
  21   LSShftPwr  (kW)      
  22   HSShftPwr  (kW)      
