
This summary file was generated by HydroDyn v2.05.01 on 03-Nov-2016 at 13:46:17.




Volume Calculations(m^3)
------------------------
  Structure Volume     :    8.30827E+02
  Submerged Volume     :    6.61603E+02
  Marine Growth Volume :    1.64247E+02
  Ballasted Volume     :    1.99586E+02
              NOTE: Structure, Submerged and Marine Growth volumes are based on members not modelled with WAMIT
                      Ballasted volume is computed from all members which are marked as filled in the HydroDyn input file, regardless of PropPot flag



Buoyancy loads summed about ( 0.0, 0.0, 0.0 )
---------------------------------------------
                                BuoyFxi               BuoyFyi               BuoyFzi               BuoyMxi               BuoyMyi               BuoyMzi 
                                  (N)                   (N)                   (N)                  (N-m)                 (N-m)                 (N-m)  
 External:                  5.543232E-02         -2.533197E-02          1.506912E+06          4.521052E+00         -4.586701E+00         -2.247095E-01
 Internal:                 -1.847744E-03         -1.057982E-03          4.071943E+06         -2.455931E-01         -2.489108E-01          1.387779E-14
 Total   :                  5.358458E-02         -2.638996E-02          5.578855E+06          4.275459E+00         -4.835612E+00         -2.247095E-01
              NOTE: External buoyancy is based on members not modelled with WAMIT
                      Internal buoyancy is computed from all members which are marked as filled in the HydroDyn input file, regardless of PropPot flag
                    Total buoyancy does not include WAMIT-modelled buoyancy contribution



Weight loads about ( 0.0, 0.0, 0.0 )
------------------------------------
                                 MGFxi                 MGFyi                 MGFzi                 MGMxi                 MGMyi                 MGMzi  
                                  (N)                   (N)                   (N)                  (N-m)                 (N-m)                 (N-m)  
 Marine Growth:             0.000000E+00          0.000000E+00         -1.771786E+06          1.454353E-01          2.622604E-02          0.000000E+00



Nodes


   i    JointIndx   JointOvrlp  InpMbrIndx     Nxi         Nyi         Nzi      InpMbrDist       R         dRdZ         t          tMG        MGDens      PropPot   FilledFlag   FillDens   FillFSLoc       Cd          Ca          Cp         AxCa        AxCp        JAxCd       JAxCa       JAxCp    NConn  Connection List
  (-)      (-)         (-)         (-)         (m)         (m)         (m)          (-)         (m)         (-)        (m)         (m)       (kg/m^3)      (-)         (-)       (kg/m^3)       (-)         (-)         (-)         (-)         (-)         (-)         (-)         (-)         (-)      (-)                  
     1           1           0         105      6.0000      6.0000    -45.5000      0.0000   1.041E+00   0.000E+00   4.910E-01   0.000E+00   0.000E+00           F           T   1.025E+03   0.000E+00   1.000E+00   1.000E+00   1.000E+00   1.000E+00   1.000E+00   0.000E+00   1.000E+00   1.000E+00      1   779
     2           2           0           2      6.0000      6.0000    -45.0000      0.0000   6.000E-01   0.000E+00   5.000E-02   0.000E+00   0.000E+00           F           T   1.025E+03   0.000E+00   1.000E+00   1.000E+00   1.000E+00   1.000E+00   1.000E+00   0.000E+00   1.000E+00   1.000E+00      1     2
     3           3           0          36      5.9670      5.9670    -44.0010      1.0000   4.000E-01   0.000E+00   2.000E-02   0.000E+00   0.000E+00           F           F   0.000E+00   0.000E+00   1.000E+00   1.000E+00   1.000E+00   1.000E+00   1.000E+00   0.000E+00   1.000E+00   1.000E+00      1   340
     4           4           0          45      5.9390      5.9390    -43.1270      0.0000   4.000E-01   0.000E+00   2.000E-02   0.000E+00   0.000E+00           F           F   0.000E+00   0.000E+00   1.000E+00   1.000E+00   1.000E+00   1.000E+00   1.000E+00   0.000E+00   1.000E+00   1.000E+00      1    45
     5           5           0           4      5.3330      5.3330    -24.6140      1.0000   6.000E-01   0.000E+00   5.000E-02   1.000E-01   1.100E+03           F           T   1.025E+03   0.000E+00   1.000E+00   1.000E+00   1.000E+00   1.000E+00   1.000E+00   0.000E+00   1.000E+00   1.000E+00      1   803
     6           6           0         107     -6.0000      6.0000    -45.5000      0.0000   1.041E+00   0.000E+00   4.910E-01   0.000E+00   0.000E+00           F           T   1.025E+03   0.000E+00   1.000E+00   1.000E+00   1.000E+00   1.000E+00   1.000E+00   0.000E+00   1.000E+00   1.000E+00      1   785
     7           7           0           6     -6.0000      6.0000    -45.0000      0.0000   6.000E-01   0.000E+00   5.000E-02   0.000E+00   0.000E+00           F           T   1.025E+03   0.000E+00   1.000E+00   1.000E+00   1.000E+00   1.000E+00   1.000E+00   0.000E+00   1.000E+00   1.000E+00      1     6
     8           8           0          34     -5.9670      5.9670    -44.0010      0.0000   4.000E-01   0.000E+00   2.000E-02   0.000E+00   0.000E+00           F           F   0.000E+00   0.000E+00   1.000E+00   1.000E+00   1.000E+00   1.000E+00   1.000E+00   0.000E+00   1.000E+00   1.000E+00      1   318
     9           9           0          47     -5.9390      5.9390    -43.1270      0.0000   4.000E-01   0.000E+00   2.000E-02   0.000E+00   0.000E+00           F           F   0.000E+00   0.000E+00   1.000E+00   1.000E+00   1.000E+00   1.000E+00   1.000E+00   0.000E+00   1.000E+00   1.000E+00      1    47
    10          10           0           8     -5.3330      5.3330    -24.6140      1.0000   6.000E-01   0.000E+00   5.000E-02   1.000E-01   1.100E+03           F           T   1.025E+03   0.000E+00   1.000E+00   1.000E+00   1.000E+00   1.000E+00   1.000E+00   0.000E+00   1.000E+00   1.000E+00      1   818
    11          11           0         108     -6.0000     -6.0000    -45.5000      0.0000   1.041E+00   0.000E+00   4.910E-01   0.000E+00   0.000E+00           F           T   1.025E+03   0.000E+00   1.000E+00   1.000E+00   1.000E+00   1.000E+00   1.000E+00   0.000E+00   1.000E+00   1.000E+00      1   788
    12          12           0          10     -6.0000     -6.0000    -45.0000      0.0000   6.000E-01   0.000E+00   5.000E-02   0.000E+00   0.000E+00           F           T   1.025E+03   0.000E+00   1.000E+00   1.000E+00   1.000E+00   1.000E+00   1.000E+00   0.000E+00   1.000E+00   1.000E+00      1    10
    13          13           0          10     -5.9670     -5.9670    -44.0010      1.0000   6.000E-01   0.000E+00   5.000E-02   0.000E+00   0.000E+00           F           T   1.025E+03   0.000E+00   1.000E+00   1.000E+00   1.000E+00   1.000E+00   1.000E+00   0.000E+00   1.000E+00   1.000E+00      1   161
    14          14           0          51     -5.9390     -5.9390    -43.1270      0.0000   4.000E-01   0.000E+00   2.000E-02   0.000E+00   0.000E+00           F           F   0.000E+00   0.000E+00   1.000E+00   1.000E+00   1.000E+00   1.000E+00   1.000E+00   0.000E+00   1.000E+00   1.000E+00      1    51
    15          15           0          12     -5.3330     -5.3330    -24.6140      1.0000   6.000E-01   0.000E+00   5.000E-02   1.000E-01   1.100E+03           F           T   1.025E+03   0.000E+00   1.000E+00   1.000E+00   1.000E+00   1.000E+00   1.000E+00   0.000E+00   1.000E+00   1.000E+00      1   833
    16          16           0         106      6.0000     -6.0000    -45.5000      0.0000   1.041E+00   0.000E+00   4.910E-01   0.000E+00   0.000E+00           F           T   1.025E+03   0.000E+00   1.000E+00   1.000E+00   1.000E+00   1.000E+00   1.000E+00   0.000E+00   1.000E+00   1.000E+00      1   782
    17          17           0          14      6.0000     -6.0000    -45.0000      0.0000   6.000E-01   0.000E+00   5.000E-02   0.000E+00   0.000E+00           F           T   1.025E+03   0.000E+00   1.000E+00   1.000E+00   1.000E+00   1.000E+00   1.000E+00   0.000E+00   1.000E+00   1.000E+00      1    14
    18          18           0          35      5.9670     -5.9670    -44.0010      1.0000   4.000E-01   0.000E+00   2.000E-02   0.000E+00   0.000E+00           F           F   0.000E+00   0.000E+00   1.000E+00   1.000E+00   1.000E+00   1.000E+00   1.000E+00   0.000E+00   1.000E+00   1.000E+00      1   329
    19          19           0          49      5.9390     -5.9390    -43.1270      0.0000   4.000E-01   0.000E+00   2.000E-02   0.000E+00   0.000E+00           F           F   0.000E+00   0.000E+00   1.000E+00   1.000E+00   1.000E+00   1.000E+00   1.000E+00   0.000E+00   1.000E+00   1.000E+00      1    49
    20          20           0          16      5.3330     -5.3330    -24.6140      1.0000   6.000E-01   0.000E+00   5.000E-02   1.000E-01   1.100E+03           F           T   1.025E+03   0.000E+00   1.000E+00   1.000E+00   1.000E+00   1.000E+00   1.000E+00   0.000E+00   1.000E+00   1.000E+00      1   848
    21          21           0          64      4.8200      4.8200     -8.9220      1.0000   4.000E-01   0.000E+00   2.000E-02   1.000E-01   1.100E+03           F           F   0.000E+00   0.000E+00   1.000E+00   1.000E+00   1.000E+00   1.000E+00   1.000E+00   0.000E+00   1.000E+00   1.000E+00      1   546
    22          22           0          80      4.3850      4.3850      4.3780      1.0000   4.000E-01   0.000E+00   2.000E-02   0.000E+00   0.000E+00           F           F   0.000E+00   0.000E+00   1.000E+00   1.000E+00   1.000E+00   1.000E+00   1.000E+00   0.000E+00   1.000E+00   1.000E+00      1   958
    23          23           0          96      4.0160      4.0160     15.6510      1.0000   4.000E-01   0.000E+00   2.000E-02   0.000E+00   0.000E+00           F           F   0.000E+00   0.000E+00   1.000E+00   1.000E+00   1.000E+00   1.000E+00   1.000E+00   0.000E+00   1.000E+00   1.000E+00      1   738
    24          24           0         101      4.0000      4.0000     16.1500      0.0000   6.000E-01   0.000E+00   4.000E-02   0.000E+00   0.000E+00           F           F   0.000E+00   0.000E+00   1.000E+00   1.000E+00   1.000E+00   1.000E+00   1.000E+00   0.000E+00   1.000E+00   1.000E+00      1   101
    25          25           0          62     -4.8200      4.8200     -8.9220      1.0000   4.000E-01   0.000E+00   2.000E-02   1.000E-01   1.100E+03           F           F   0.000E+00   0.000E+00   1.000E+00   1.000E+00   1.000E+00   1.000E+00   1.000E+00   0.000E+00   1.000E+00   1.000E+00      1   529
    26          26           0          78     -4.3850      4.3850      4.3780      1.0000   4.000E-01   0.000E+00   2.000E-02   0.000E+00   0.000E+00           F           F   0.000E+00   0.000E+00   1.000E+00   1.000E+00   1.000E+00   1.000E+00   1.000E+00   0.000E+00   1.000E+00   1.000E+00      1   953
    27          27           0          94     -4.0160      4.0160     15.6510      1.0000   4.000E-01   0.000E+00   2.000E-02   0.000E+00   0.000E+00           F           F   0.000E+00   0.000E+00   1.000E+00   1.000E+00   1.000E+00   1.000E+00   1.000E+00   0.000E+00   1.000E+00   1.000E+00      1   725
    28          28           0         102     -4.0000      4.0000     16.1500      0.0000   6.000E-01   0.000E+00   4.000E-02   0.000E+00   0.000E+00           F           F   0.000E+00   0.000E+00   1.000E+00   1.000E+00   1.000E+00   1.000E+00   1.000E+00   0.000E+00   1.000E+00   1.000E+00      1   102
    29          29           0          66     -4.8200     -4.8200     -8.9220      1.0000   4.000E-01   0.000E+00   2.000E-02   1.000E-01   1.100E+03           F           F   0.000E+00   0.000E+00   1.000E+00   1.000E+00   1.000E+00   1.000E+00   1.000E+00   0.000E+00   1.000E+00   1.000E+00      1   563
    30          30           0          82     -4.3850     -4.3850      4.3780      1.0000   4.000E-01   0.000E+00   2.000E-02   0.000E+00   0.000E+00           F           F   0.000E+00   0.000E+00   1.000E+00   1.000E+00   1.000E+00   1.000E+00   1.000E+00   0.000E+00   1.000E+00   1.000E+00      1   963
    31          31           0          98     -4.0160     -4.0160     15.6510      1.0000   4.000E-01   0.000E+00   2.000E-02   0.000E+00   0.000E+00           F           F   0.000E+00   0.000E+00   1.000E+00   1.000E+00   1.000E+00   1.000E+00   1.000E+00   0.000E+00   1.000E+00   1.000E+00      1   751
    32          32           0         103     -4.0000     -4.0000     16.1500      0.0000   6.000E-01   0.000E+00   4.000E-02   0.000E+00   0.000E+00           F           F   0.000E+00   0.000E+00   1.000E+00   1.000E+00   1.000E+00   1.000E+00   1.000E+00   0.000E+00   1.000E+00   1.000E+00      1   103
    33          33           0          68      4.8200     -4.8200     -8.9220      1.0000   4.000E-01   0.000E+00   2.000E-02   1.000E-01   1.100E+03           F           F   0.000E+00   0.000E+00   1.000E+00   1.000E+00   1.000E+00   1.000E+00   1.000E+00   0.000E+00   1.000E+00   1.000E+00      1   580
    34          34           0          84      4.3850     -4.3850      4.3780      1.0000   4.000E-01   0.000E+00   2.000E-02   0.000E+00   0.000E+00           F           F   0.000E+00   0.000E+00   1.000E+00   1.000E+00   1.000E+00   1.000E+00   1.000E+00   0.000E+00   1.000E+00   1.000E+00      1   968
    35          35           0         100      4.0160     -4.0160     15.6510      1.0000   4.000E-01   0.000E+00   2.000E-02   0.000E+00   0.000E+00           F           F   0.000E+00   0.000E+00   1.000E+00   1.000E+00   1.000E+00   1.000E+00   1.000E+00   0.000E+00   1.000E+00   1.000E+00      1   764
    36          36           0         104      4.0000     -4.0000     16.1500      0.0000   6.000E-01   0.000E+00   4.000E-02   0.000E+00   0.000E+00           F           F   0.000E+00   0.000E+00   1.000E+00   1.000E+00   1.000E+00   1.000E+00   1.000E+00   0.000E+00   1.000E+00   1.000E+00      1   104
    37          37           0          39      5.6200      0.0000    -33.3730      1.0000   4.000E-01   0.000E+00   2.000E-02   1.000E-01   1.100E+03           F           F   0.000E+00   0.000E+00   1.000E+00   1.000E+00   1.000E+00   1.000E+00   1.000E+00   0.000E+00   1.000E+00   1.000E+00      1   886
    38          38           0          43     -5.6200      0.0000    -33.3730      1.0000   4.000E-01   0.000E+00   2.000E-02   1.000E-01   1.100E+03           F           F   0.000E+00   0.000E+00   1.000E+00   1.000E+00   1.000E+00   1.000E+00   1.000E+00   0.000E+00   1.000E+00   1.000E+00      1   900
    39          39           0          47      0.0000      5.6200    -33.3730      1.0000   4.000E-01   0.000E+00   2.000E-02   1.000E-01   1.100E+03           F           F   0.000E+00   0.000E+00   1.000E+00   1.000E+00   1.000E+00   1.000E+00   1.000E+00   0.000E+00   1.000E+00   1.000E+00      1   914
    40          40           0          51      0.0000     -5.6200    -33.3730      1.0000   4.000E-01   0.000E+00   2.000E-02   1.000E-01   1.100E+03           F           F   0.000E+00   0.000E+00   1.000E+00   1.000E+00   1.000E+00   1.000E+00   1.000E+00   0.000E+00   1.000E+00   1.000E+00      1   928
    41          41           0          55      5.0640      0.0000    -16.3710      1.0000   4.000E-01   0.000E+00   2.000E-02   1.000E-01   1.100E+03           F           F   0.000E+00   0.000E+00   1.000E+00   1.000E+00   1.000E+00   1.000E+00   1.000E+00   0.000E+00   1.000E+00   1.000E+00      1   470
    42          42           0          59     -5.0640      0.0000    -16.3710      1.0000   4.000E-01   0.000E+00   2.000E-02   1.000E-01   1.100E+03           F           F   0.000E+00   0.000E+00   1.000E+00   1.000E+00   1.000E+00   1.000E+00   1.000E+00   0.000E+00   1.000E+00   1.000E+00      1   504
    43          43           0          63      0.0000      5.0640    -16.3710      1.0000   4.000E-01   0.000E+00   2.000E-02   1.000E-01   1.100E+03           F           F   0.000E+00   0.000E+00   1.000E+00   1.000E+00   1.000E+00   1.000E+00   1.000E+00   0.000E+00   1.000E+00   1.000E+00      1   538
    44          44           0          67      0.0000     -5.0640    -16.3710      1.0000   4.000E-01   0.000E+00   2.000E-02   1.000E-01   1.100E+03           F           F   0.000E+00   0.000E+00   1.000E+00   1.000E+00   1.000E+00   1.000E+00   1.000E+00   0.000E+00   1.000E+00   1.000E+00      1   572
    45          45           0          71      4.5920      0.0000     -1.9580      1.0000   4.000E-01   0.000E+00   2.000E-02   0.000E+00   0.000E+00           F           F   0.000E+00   0.000E+00   1.000E+00   1.000E+00   1.000E+00   1.000E+00   1.000E+00   0.000E+00   1.000E+00   1.000E+00      1   135
    46          46           0          75     -4.5920      0.0000     -1.9580      1.0000   4.000E-01   0.000E+00   2.000E-02   0.000E+00   0.000E+00           F           F   0.000E+00   0.000E+00   1.000E+00   1.000E+00   1.000E+00   1.000E+00   1.000E+00   0.000E+00   1.000E+00   1.000E+00      1   139
    47          47           0          79      0.0000      4.5920     -1.9580      1.0000   4.000E-01   0.000E+00   2.000E-02   0.000E+00   0.000E+00           F           F   0.000E+00   0.000E+00   1.000E+00   1.000E+00   1.000E+00   1.000E+00   1.000E+00   0.000E+00   1.000E+00   1.000E+00      1   143
    48          48           0          83      0.0000     -4.5920     -1.9580      1.0000   4.000E-01   0.000E+00   2.000E-02   0.000E+00   0.000E+00           F           F   0.000E+00   0.000E+00   1.000E+00   1.000E+00   1.000E+00   1.000E+00   1.000E+00   0.000E+00   1.000E+00   1.000E+00      1   147
    49          49           0          87      4.1930      0.0000     10.2620      1.0000   4.000E-01   0.000E+00   2.000E-02   0.000E+00   0.000E+00           F           F   0.000E+00   0.000E+00   1.000E+00   1.000E+00   1.000E+00   1.000E+00   1.000E+00   0.000E+00   1.000E+00   1.000E+00      1   680
    50          50           0          91     -4.1930      0.0000     10.2620      1.0000   4.000E-01   0.000E+00   2.000E-02   0.000E+00   0.000E+00           F           F   0.000E+00   0.000E+00   1.000E+00   1.000E+00   1.000E+00   1.000E+00   1.000E+00   0.000E+00   1.000E+00   1.000E+00      1   706
    51          51           0          95      0.0000      4.1930     10.2620      1.0000   4.000E-01   0.000E+00   2.000E-02   0.000E+00   0.000E+00           F           F   0.000E+00   0.000E+00   1.000E+00   1.000E+00   1.000E+00   1.000E+00   1.000E+00   0.000E+00   1.000E+00   1.000E+00      1   732
    52          52           0          99      0.0000     -4.1930     10.2620      1.0000   4.000E-01   0.000E+00   2.000E-02   0.000E+00   0.000E+00           F           F   0.000E+00   0.000E+00   1.000E+00   1.000E+00   1.000E+00   1.000E+00   1.000E+00   0.000E+00   1.000E+00   1.000E+00      1   758
    53          53           0         101      4.0000      4.0000     20.1500      1.0000   6.000E-01   0.000E+00   4.000E-02   0.000E+00   0.000E+00           F           F   0.000E+00   0.000E+00   1.000E+00   1.000E+00   1.000E+00   1.000E+00   1.000E+00   0.000E+00   1.000E+00   1.000E+00      1   767
    54          54           0         102     -4.0000      4.0000     20.1500      1.0000   6.000E-01   0.000E+00   4.000E-02   0.000E+00   0.000E+00           F           F   0.000E+00   0.000E+00   1.000E+00   1.000E+00   1.000E+00   1.000E+00   1.000E+00   0.000E+00   1.000E+00   1.000E+00      1   770
    55          55           0         104      4.0000     -4.0000     20.1500      1.0000   6.000E-01   0.000E+00   4.000E-02   0.000E+00   0.000E+00           F           F   0.000E+00   0.000E+00   1.000E+00   1.000E+00   1.000E+00   1.000E+00   1.000E+00   0.000E+00   1.000E+00   1.000E+00      1   776
    56          56           0         103     -4.0000     -4.0000     20.1500      1.0000   6.000E-01   0.000E+00   4.000E-02   0.000E+00   0.000E+00           F           F   0.000E+00   0.000E+00   1.000E+00   1.000E+00   1.000E+00   1.000E+00   1.000E+00   0.000E+00   1.000E+00   1.000E+00      1   773
    57          57           0         110      6.0000     -6.0000    -49.5000      0.0000   1.041E+00   0.000E+00   6.000E-02   0.000E+00   0.000E+00           F           T   1.025E+03   0.000E+00   1.000E+00   1.000E+00   1.000E+00   1.000E+00   1.000E+00   0.000E+00   1.000E+00   1.000E+00      1   150
    58          58           0         109      6.0000      6.0000    -49.5000      0.0000   1.041E+00   0.000E+00   6.000E-02   0.000E+00   0.000E+00           F           T   1.025E+03   0.000E+00   1.000E+00   1.000E+00   1.000E+00   1.000E+00   1.000E+00   0.000E+00   1.000E+00   1.000E+00      1   149
    59          59           0         112     -6.0000     -6.0000    -49.5000      0.0000   1.041E+00   0.000E+00   6.000E-02   0.000E+00   0.000E+00           F           T   1.025E+03   0.000E+00   1.000E+00   1.000E+00   1.000E+00   1.000E+00   1.000E+00   0.000E+00   1.000E+00   1.000E+00      1   152
    60          60           0         111     -6.0000      6.0000    -49.5000      0.0000   1.041E+00   0.000E+00   6.000E-02   0.000E+00   0.000E+00           F           T   1.025E+03   0.000E+00   1.000E+00   1.000E+00   1.000E+00   1.000E+00   1.000E+00   0.000E+00   1.000E+00   1.000E+00      1   151
    61          61           0         110      6.0000     -6.0000    -50.0010      1.0000   1.041E+00   0.000E+00   6.000E-02   0.000E+00   0.000E+00           F           T   1.025E+03   0.000E+00   1.000E+00   1.000E+00   1.000E+00   1.000E+00   1.000E+00   0.000E+00   1.000E+00   1.000E+00      1   110
    62          62           0         109      6.0000      6.0000    -50.0010      1.0000   1.041E+00   0.000E+00   6.000E-02   0.000E+00   0.000E+00           F           T   1.025E+03   0.000E+00   1.000E+00   1.000E+00   1.000E+00   1.000E+00   1.000E+00   0.000E+00   1.000E+00   1.000E+00      1   109
    63          63           0         112     -6.0000     -6.0000    -50.0010      1.0000   1.041E+00   0.000E+00   6.000E-02   0.000E+00   0.000E+00           F           T   1.025E+03   0.000E+00   1.000E+00   1.000E+00   1.000E+00   1.000E+00   1.000E+00   0.000E+00   1.000E+00   1.000E+00      1   112
    64          64           0         111     -6.0000      6.0000    -50.0010      1.0000   1.041E+00   0.000E+00   6.000E-02   0.000E+00   0.000E+00           F           T   1.025E+03   0.000E+00   1.000E+00   1.000E+00   1.000E+00   1.000E+00   1.000E+00   0.000E+00   1.000E+00   1.000E+00      1   111
    65          65           0           4      5.8366      5.8366    -40.0000      0.1689   6.000E-01   0.000E+00   5.000E-02   0.000E+00   0.000E+00           F           T   1.025E+03   0.000E+00   1.000E+00   1.000E+00   1.000E+00   1.000E+00   1.000E+00   0.000E+00   0.000E+00   0.000E+00      1   156
    66          66           0           8     -5.8366      5.8366    -40.0000      0.1689   6.000E-01   0.000E+00   5.000E-02   0.000E+00   0.000E+00           F           T   1.025E+03   0.000E+00   1.000E+00   1.000E+00   1.000E+00   1.000E+00   1.000E+00   0.000E+00   0.000E+00   0.000E+00      1   160
    67          67           0          12     -5.8366     -5.8366    -40.0000      0.1689   6.000E-01   0.000E+00   5.000E-02   0.000E+00   0.000E+00           F           T   1.025E+03   0.000E+00   1.000E+00   1.000E+00   1.000E+00   1.000E+00   1.000E+00   0.000E+00   0.000E+00   0.000E+00      1   164
    68          68           0          16      5.8366     -5.8366    -40.0000      0.1689   6.000E-01   0.000E+00   5.000E-02   0.000E+00   0.000E+00           F           T   1.025E+03   0.000E+00   1.000E+00   1.000E+00   1.000E+00   1.000E+00   1.000E+00   0.000E+00   0.000E+00   0.000E+00      1   168
    69          69           0          18      4.5936      4.5936     -2.0000      0.5205   6.000E-01   0.000E+00   3.500E-02   1.000E-01   1.100E+03           F           T   1.025E+03   0.000E+00   1.000E+00   1.000E+00   1.000E+00   1.000E+00   1.000E+00   0.000E+00   0.000E+00   0.000E+00      1   189
    70          70           0          18      4.5282      4.5282      0.0000      0.6708   6.000E-01   0.000E+00   3.500E-02   0.000E+00   0.000E+00           F           T   1.025E+03   0.000E+00   1.000E+00   1.000E+00   1.000E+00   1.000E+00   1.000E+00   0.000E+00   0.000E+00   0.000E+00      1   850
    71          71           0          22     -4.5936      4.5936     -2.0000      0.5205   6.000E-01   0.000E+00   3.500E-02   1.000E-01   1.100E+03           F           T   1.025E+03   0.000E+00   1.000E+00   1.000E+00   1.000E+00   1.000E+00   1.000E+00   0.000E+00   0.000E+00   0.000E+00      1   221
    72          72           0          22     -4.5282      4.5282      0.0000      0.6708   6.000E-01   0.000E+00   3.500E-02   0.000E+00   0.000E+00           F           T   1.025E+03   0.000E+00   1.000E+00   1.000E+00   1.000E+00   1.000E+00   1.000E+00   0.000E+00   0.000E+00   0.000E+00      1   856
    73          73           0          26     -4.5936     -4.5936     -2.0000      0.5205   6.000E-01   0.000E+00   3.500E-02   1.000E-01   1.100E+03           F           T   1.025E+03   0.000E+00   1.000E+00   1.000E+00   1.000E+00   1.000E+00   1.000E+00   0.000E+00   0.000E+00   0.000E+00      1   253
    74          74           0          26     -4.5282     -4.5282      0.0000      0.6708   6.000E-01   0.000E+00   3.500E-02   0.000E+00   0.000E+00           F           T   1.025E+03   0.000E+00   1.000E+00   1.000E+00   1.000E+00   1.000E+00   1.000E+00   0.000E+00   0.000E+00   0.000E+00      1   862
    75          75           0          30      4.5936     -4.5936     -2.0000      0.5205   6.000E-01   0.000E+00   3.500E-02   1.000E-01   1.100E+03           F           T   1.025E+03   0.000E+00   1.000E+00   1.000E+00   1.000E+00   1.000E+00   1.000E+00   0.000E+00   0.000E+00   0.000E+00      1   285
    76          76           0          30      4.5282     -4.5282      0.0000      0.6708   6.000E-01   0.000E+00   3.500E-02   0.000E+00   0.000E+00           F           T   1.025E+03   0.000E+00   1.000E+00   1.000E+00   1.000E+00   1.000E+00   1.000E+00   0.000E+00   0.000E+00   0.000E+00      1   868
    77          77           0          37      5.8367      4.0350    -40.0000      0.3206   4.000E-01   0.000E+00   2.000E-02   0.000E+00   0.000E+00           F           F   0.000E+00   0.000E+00   1.000E+00   1.000E+00   1.000E+00   1.000E+00   1.000E+00   0.000E+00   0.000E+00   0.000E+00      1   343
    78          78           0          39      5.8367     -4.0350    -40.0000      0.3206   4.000E-01   0.000E+00   2.000E-02   0.000E+00   0.000E+00           F           F   0.000E+00   0.000E+00   1.000E+00   1.000E+00   1.000E+00   1.000E+00   1.000E+00   0.000E+00   0.000E+00   0.000E+00      1   356
    79          79           0          41     -5.8367      4.0350    -40.0000      0.3206   4.000E-01   0.000E+00   2.000E-02   0.000E+00   0.000E+00           F           F   0.000E+00   0.000E+00   1.000E+00   1.000E+00   1.000E+00   1.000E+00   1.000E+00   0.000E+00   0.000E+00   0.000E+00      1   369
    80          80           0          43     -5.8367     -4.0350    -40.0000      0.3206   4.000E-01   0.000E+00   2.000E-02   0.000E+00   0.000E+00           F           F   0.000E+00   0.000E+00   1.000E+00   1.000E+00   1.000E+00   1.000E+00   1.000E+00   0.000E+00   0.000E+00   0.000E+00      1   382
    81          81           0          45      4.0350      5.8367    -40.0000      0.3206   4.000E-01   0.000E+00   2.000E-02   0.000E+00   0.000E+00           F           F   0.000E+00   0.000E+00   1.000E+00   1.000E+00   1.000E+00   1.000E+00   1.000E+00   0.000E+00   0.000E+00   0.000E+00      1   395
    82          82           0          47     -4.0350      5.8367    -40.0000      0.3206   4.000E-01   0.000E+00   2.000E-02   0.000E+00   0.000E+00           F           F   0.000E+00   0.000E+00   1.000E+00   1.000E+00   1.000E+00   1.000E+00   1.000E+00   0.000E+00   0.000E+00   0.000E+00      1   408
    83          83           0          49      4.0350     -5.8367    -40.0000      0.3206   4.000E-01   0.000E+00   2.000E-02   0.000E+00   0.000E+00           F           F   0.000E+00   0.000E+00   1.000E+00   1.000E+00   1.000E+00   1.000E+00   1.000E+00   0.000E+00   0.000E+00   0.000E+00      1   421
    84          84           0          51     -4.0350     -5.8367    -40.0000      0.3206   4.000E-01   0.000E+00   2.000E-02   0.000E+00   0.000E+00           F           F   0.000E+00   0.000E+00   1.000E+00   1.000E+00   1.000E+00   1.000E+00   1.000E+00   0.000E+00   0.000E+00   0.000E+00      1   434
    85          85           0          69      4.5934      0.0291     -2.0000      0.9940   4.000E-01   0.000E+00   2.000E-02   1.000E-01   1.100E+03           F           F   0.000E+00   0.000E+00   1.000E+00   1.000E+00   1.000E+00   1.000E+00   1.000E+00   0.000E+00   0.000E+00   0.000E+00      1   588
    86          86           0          70      4.5280     -1.3551      0.0000      0.3090   4.000E-01   0.000E+00   2.000E-02   0.000E+00   0.000E+00           F           F   0.000E+00   0.000E+00   1.000E+00   1.000E+00   1.000E+00   1.000E+00   1.000E+00   0.000E+00   0.000E+00   0.000E+00      1   590
    87          87           0          71      4.5934     -0.0291     -2.0000      0.9940   4.000E-01   0.000E+00   2.000E-02   1.000E-01   1.100E+03           F           F   0.000E+00   0.000E+00   1.000E+00   1.000E+00   1.000E+00   1.000E+00   1.000E+00   0.000E+00   0.000E+00   0.000E+00      1   598
    88          88           0          72      4.5280      1.3551      0.0000      0.3090   4.000E-01   0.000E+00   2.000E-02   0.000E+00   0.000E+00           F           F   0.000E+00   0.000E+00   1.000E+00   1.000E+00   1.000E+00   1.000E+00   1.000E+00   0.000E+00   0.000E+00   0.000E+00      1   600
    89          89           0          73     -4.5934      0.0291     -2.0000      0.9940   4.000E-01   0.000E+00   2.000E-02   1.000E-01   1.100E+03           F           F   0.000E+00   0.000E+00   1.000E+00   1.000E+00   1.000E+00   1.000E+00   1.000E+00   0.000E+00   0.000E+00   0.000E+00      1   608
    90          90           0          74     -4.5280     -1.3551      0.0000      0.3090   4.000E-01   0.000E+00   2.000E-02   0.000E+00   0.000E+00           F           F   0.000E+00   0.000E+00   1.000E+00   1.000E+00   1.000E+00   1.000E+00   1.000E+00   0.000E+00   0.000E+00   0.000E+00      1   610
    91          91           0          75     -4.5934     -0.0291     -2.0000      0.9940   4.000E-01   0.000E+00   2.000E-02   1.000E-01   1.100E+03           F           F   0.000E+00   0.000E+00   1.000E+00   1.000E+00   1.000E+00   1.000E+00   1.000E+00   0.000E+00   0.000E+00   0.000E+00      1   618
    92          92           0          76     -4.5280      1.3551      0.0000      0.3090   4.000E-01   0.000E+00   2.000E-02   0.000E+00   0.000E+00           F           F   0.000E+00   0.000E+00   1.000E+00   1.000E+00   1.000E+00   1.000E+00   1.000E+00   0.000E+00   0.000E+00   0.000E+00      1   620
    93          93           0          77      0.0291      4.5934     -2.0000      0.9940   4.000E-01   0.000E+00   2.000E-02   1.000E-01   1.100E+03           F           F   0.000E+00   0.000E+00   1.000E+00   1.000E+00   1.000E+00   1.000E+00   1.000E+00   0.000E+00   0.000E+00   0.000E+00      1   628
    94          94           0          78     -1.3551      4.5280      0.0000      0.3090   4.000E-01   0.000E+00   2.000E-02   0.000E+00   0.000E+00           F           F   0.000E+00   0.000E+00   1.000E+00   1.000E+00   1.000E+00   1.000E+00   1.000E+00   0.000E+00   0.000E+00   0.000E+00      1   630
    95          95           0          79     -0.0291      4.5934     -2.0000      0.9940   4.000E-01   0.000E+00   2.000E-02   1.000E-01   1.100E+03           F           F   0.000E+00   0.000E+00   1.000E+00   1.000E+00   1.000E+00   1.000E+00   1.000E+00   0.000E+00   0.000E+00   0.000E+00      1   638
    96          96           0          80      1.3551      4.5280      0.0000      0.3090   4.000E-01   0.000E+00   2.000E-02   0.000E+00   0.000E+00           F           F   0.000E+00   0.000E+00   1.000E+00   1.000E+00   1.000E+00   1.000E+00   1.000E+00   0.000E+00   0.000E+00   0.000E+00      1   640
    97          97           0          81      0.0291     -4.5934     -2.0000      0.9940   4.000E-01   0.000E+00   2.000E-02   1.000E-01   1.100E+03           F           F   0.000E+00   0.000E+00   1.000E+00   1.000E+00   1.000E+00   1.000E+00   1.000E+00   0.000E+00   0.000E+00   0.000E+00      1   648
    98          98           0          82     -1.3551     -4.5280      0.0000      0.3090   4.000E-01   0.000E+00   2.000E-02   0.000E+00   0.000E+00           F           F   0.000E+00   0.000E+00   1.000E+00   1.000E+00   1.000E+00   1.000E+00   1.000E+00   0.000E+00   0.000E+00   0.000E+00      1   650
    99          99           0          83     -0.0291     -4.5934     -2.0000      0.9940   4.000E-01   0.000E+00   2.000E-02   1.000E-01   1.100E+03           F           F   0.000E+00   0.000E+00   1.000E+00   1.000E+00   1.000E+00   1.000E+00   1.000E+00   0.000E+00   0.000E+00   0.000E+00      1   658
   100         100           0          84      1.3551     -4.5280      0.0000      0.3090   4.000E-01   0.000E+00   2.000E-02   0.000E+00   0.000E+00           F           F   0.000E+00   0.000E+00   1.000E+00   1.000E+00   1.000E+00   1.000E+00   1.000E+00   0.000E+00   0.000E+00   0.000E+00      1   660
   101         101           0         109      6.0000      6.0000    -50.0000      0.9980   1.041E+00   0.000E+00   6.000E-02   0.000E+00   0.000E+00           F           T   1.025E+03   0.000E+00   1.000E+00   1.000E+00   1.000E+00   1.000E+00   1.000E+00   0.000E+00   0.000E+00   0.000E+00      1   149
   102         102           0         110      6.0000     -6.0000    -50.0000      0.9980   1.041E+00   0.000E+00   6.000E-02   0.000E+00   0.000E+00           F           T   1.025E+03   0.000E+00   1.000E+00   1.000E+00   1.000E+00   1.000E+00   1.000E+00   0.000E+00   0.000E+00   0.000E+00      1   150
   103         103           0         111     -6.0000      6.0000    -50.0000      0.9980   1.041E+00   0.000E+00   6.000E-02   0.000E+00   0.000E+00           F           T   1.025E+03   0.000E+00   1.000E+00   1.000E+00   1.000E+00   1.000E+00   1.000E+00   0.000E+00   0.000E+00   0.000E+00      1   151
   104         104           0         112     -6.0000     -6.0000    -50.0000      0.9980   1.041E+00   0.000E+00   6.000E-02   0.000E+00   0.000E+00           F           T   1.025E+03   0.000E+00   1.000E+00   1.000E+00   1.000E+00   1.000E+00   1.000E+00   0.000E+00   0.000E+00   0.000E+00      1   152
   105          -1           0           2      5.9835      5.9835    -44.5005      0.5000   6.000E-01   0.000E+00   5.000E-02   0.000E+00   0.000E+00           F           T   1.025E+03   0.000E+00   1.000E+00   1.000E+00   1.000E+00   1.000E+00   1.000E+00   0.000E+00   0.000E+00   0.000E+00      2     2   153
   106          -1           0           4      5.9134      5.9134    -42.3452      0.0422   6.000E-01   0.000E+00   5.000E-02   0.000E+00   0.000E+00           F           T   1.025E+03   0.000E+00   1.000E+00   1.000E+00   1.000E+00   1.000E+00   1.000E+00   0.000E+00   0.000E+00   0.000E+00      2     4   154
   107          -1           0           4      5.8878      5.8878    -41.5635      0.0845   6.000E-01   0.000E+00   5.000E-02   0.000E+00   0.000E+00           F           T   1.025E+03   0.000E+00   1.000E+00   1.000E+00   1.000E+00   1.000E+00   1.000E+00   0.000E+00   0.000E+00   0.000E+00      2   154   155
   108          -1           0           4      5.8622      5.8622    -40.7817      0.1267   6.000E-01   0.000E+00   5.000E-02   0.000E+00   0.000E+00           F           T   1.025E+03   0.000E+00   1.000E+00   1.000E+00   1.000E+00   1.000E+00   1.000E+00   0.000E+00   0.000E+00   0.000E+00      2   155   156
   109          -1           0           6     -5.9835      5.9835    -44.5005      0.5000   6.000E-01   0.000E+00   5.000E-02   0.000E+00   0.000E+00           F           T   1.025E+03   0.000E+00   1.000E+00   1.000E+00   1.000E+00   1.000E+00   1.000E+00   0.000E+00   0.000E+00   0.000E+00      2     6   157
   110          -1           0           8     -5.9134      5.9134    -42.3452      0.0422   6.000E-01   0.000E+00   5.000E-02   0.000E+00   0.000E+00           F           T   1.025E+03   0.000E+00   1.000E+00   1.000E+00   1.000E+00   1.000E+00   1.000E+00   0.000E+00   0.000E+00   0.000E+00      2     8   158
   111          -1           0           8     -5.8878      5.8878    -41.5635      0.0845   6.000E-01   0.000E+00   5.000E-02   0.000E+00   0.000E+00           F           T   1.025E+03   0.000E+00   1.000E+00   1.000E+00   1.000E+00   1.000E+00   1.000E+00   0.000E+00   0.000E+00   0.000E+00      2   158   159
   112          -1           0           8     -5.8622      5.8622    -40.7817      0.1267   6.000E-01   0.000E+00   5.000E-02   0.000E+00   0.000E+00           F           T   1.025E+03   0.000E+00   1.000E+00   1.000E+00   1.000E+00   1.000E+00   1.000E+00   0.000E+00   0.000E+00   0.000E+00      2   159   160
   113          -1           0          10     -5.9835     -5.9835    -44.5005      0.5000   6.000E-01   0.000E+00   5.000E-02   0.000E+00   0.000E+00           F           T   1.025E+03   0.000E+00   1.000E+00   1.000E+00   1.000E+00   1.000E+00   1.000E+00   0.000E+00   0.000E+00   0.000E+00      2    10   161
   114          -1           0          12     -5.9134     -5.9134    -42.3452      0.0422   6.000E-01   0.000E+00   5.000E-02   0.000E+00   0.000E+00           F           T   1.025E+03   0.000E+00   1.000E+00   1.000E+00   1.000E+00   1.000E+00   1.000E+00   0.000E+00   0.000E+00   0.000E+00      2    12   162
   115          -1           0          12     -5.8878     -5.8878    -41.5635      0.0845   6.000E-01   0.000E+00   5.000E-02   0.000E+00   0.000E+00           F           T   1.025E+03   0.000E+00   1.000E+00   1.000E+00   1.000E+00   1.000E+00   1.000E+00   0.000E+00   0.000E+00   0.000E+00      2   162   163
   116          -1           0          12     -5.8622     -5.8622    -40.7817      0.1267   6.000E-01   0.000E+00   5.000E-02   0.000E+00   0.000E+00           F           T   1.025E+03   0.000E+00   1.000E+00   1.000E+00   1.000E+00   1.000E+00   1.000E+00   0.000E+00   0.000E+00   0.000E+00      2   163   164
   117          -1           0          14      5.9835     -5.9835    -44.5005      0.5000   6.000E-01   0.000E+00   5.000E-02   0.000E+00   0.000E+00           F           T   1.025E+03   0.000E+00   1.000E+00   1.000E+00   1.000E+00   1.000E+00   1.000E+00   0.000E+00   0.000E+00   0.000E+00      2    14   165
   118          -1           0          16      5.9134     -5.9134    -42.3452      0.0422   6.000E-01   0.000E+00   5.000E-02   0.000E+00   0.000E+00           F           T   1.025E+03   0.000E+00   1.000E+00   1.000E+00   1.000E+00   1.000E+00   1.000E+00   0.000E+00   0.000E+00   0.000E+00      2    16   166
   119          -1           0          16      5.8878     -5.8878    -41.5635      0.0845   6.000E-01   0.000E+00   5.000E-02   0.000E+00   0.000E+00           F           T   1.025E+03   0.000E+00   1.000E+00   1.000E+00   1.000E+00   1.000E+00   1.000E+00   0.000E+00   0.000E+00   0.000E+00      2   166   167
   120          -1           0          16      5.8622     -5.8622    -40.7817      0.1267   6.000E-01   0.000E+00   5.000E-02   0.000E+00   0.000E+00           F           T   1.025E+03   0.000E+00   1.000E+00   1.000E+00   1.000E+00   1.000E+00   1.000E+00   0.000E+00   0.000E+00   0.000E+00      2   167   168
   121          -1           0          17      5.3009      5.3009    -23.6333      0.0625   6.000E-01   0.000E+00   3.500E-02   1.000E-01   1.100E+03           F           T   1.025E+03   0.000E+00   1.000E+00   1.000E+00   1.000E+00   1.000E+00   1.000E+00   0.000E+00   0.000E+00   0.000E+00      2    17   169
   122          -1           0          17      5.2689      5.2689    -22.6525      0.1250   6.000E-01   0.000E+00   3.500E-02   1.000E-01   1.100E+03           F           T   1.025E+03   0.000E+00   1.000E+00   1.000E+00   1.000E+00   1.000E+00   1.000E+00   0.000E+00   0.000E+00   0.000E+00      2   169   170
   123          -1           0          17      5.2368      5.2368    -21.6718      0.1875   6.000E-01   0.000E+00   3.500E-02   1.000E-01   1.100E+03           F           T   1.025E+03   0.000E+00   1.000E+00   1.000E+00   1.000E+00   1.000E+00   1.000E+00   0.000E+00   0.000E+00   0.000E+00      2   170   171
   124          -1           0          17      5.2048      5.2048    -20.6910      0.2500   6.000E-01   0.000E+00   3.500E-02   1.000E-01   1.100E+03           F           T   1.025E+03   0.000E+00   1.000E+00   1.000E+00   1.000E+00   1.000E+00   1.000E+00   0.000E+00   0.000E+00   0.000E+00      2   171   172
   125          -1           0          17      5.1727      5.1727    -19.7103      0.3125   6.000E-01   0.000E+00   3.500E-02   1.000E-01   1.100E+03           F           T   1.025E+03   0.000E+00   1.000E+00   1.000E+00   1.000E+00   1.000E+00   1.000E+00   0.000E+00   0.000E+00   0.000E+00      2   172   173
   126          -1           0          17      5.1406      5.1406    -18.7295      0.3750   6.000E-01   0.000E+00   3.500E-02   1.000E-01   1.100E+03           F           T   1.025E+03   0.000E+00   1.000E+00   1.000E+00   1.000E+00   1.000E+00   1.000E+00   0.000E+00   0.000E+00   0.000E+00      2   173   174
   127          -1           0          17      5.1086      5.1086    -17.7488      0.4375   6.000E-01   0.000E+00   3.500E-02   1.000E-01   1.100E+03           F           T   1.025E+03   0.000E+00   1.000E+00   1.000E+00   1.000E+00   1.000E+00   1.000E+00   0.000E+00   0.000E+00   0.000E+00      2   174   175
   128          -1           0          17      5.0765      5.0765    -16.7680      0.5000   6.000E-01   0.000E+00   3.500E-02   1.000E-01   1.100E+03           F           T   1.025E+03   0.000E+00   1.000E+00   1.000E+00   1.000E+00   1.000E+00   1.000E+00   0.000E+00   0.000E+00   0.000E+00      2   175   176
   129          -1           0          17      5.0444      5.0444    -15.7873      0.5625   6.000E-01   0.000E+00   3.500E-02   1.000E-01   1.100E+03           F           T   1.025E+03   0.000E+00   1.000E+00   1.000E+00   1.000E+00   1.000E+00   1.000E+00   0.000E+00   0.000E+00   0.000E+00      2   176   177
   130          -1           0          17      5.0124      5.0124    -14.8065      0.6250   6.000E-01   0.000E+00   3.500E-02   1.000E-01   1.100E+03           F           T   1.025E+03   0.000E+00   1.000E+00   1.000E+00   1.000E+00   1.000E+00   1.000E+00   0.000E+00   0.000E+00   0.000E+00      2   177   178
   131          -1           0          17      4.9803      4.9803    -13.8258      0.6875   6.000E-01   0.000E+00   3.500E-02   1.000E-01   1.100E+03           F           T   1.025E+03   0.000E+00   1.000E+00   1.000E+00   1.000E+00   1.000E+00   1.000E+00   0.000E+00   0.000E+00   0.000E+00      2   178   179
   132          -1           0          17      4.9482      4.9482    -12.8450      0.7500   6.000E-01   0.000E+00   3.500E-02   1.000E-01   1.100E+03           F           T   1.025E+03   0.000E+00   1.000E+00   1.000E+00   1.000E+00   1.000E+00   1.000E+00   0.000E+00   0.000E+00   0.000E+00      2   179   180
   133          -1           0          17      4.9162      4.9162    -11.8643      0.8125   6.000E-01   0.000E+00   3.500E-02   1.000E-01   1.100E+03           F           T   1.025E+03   0.000E+00   1.000E+00   1.000E+00   1.000E+00   1.000E+00   1.000E+00   0.000E+00   0.000E+00   0.000E+00      2   180   181
   134          -1           0          17      4.8841      4.8841    -10.8835      0.8750   6.000E-01   0.000E+00   3.500E-02   1.000E-01   1.100E+03           F           T   1.025E+03   0.000E+00   1.000E+00   1.000E+00   1.000E+00   1.000E+00   1.000E+00   0.000E+00   0.000E+00   0.000E+00      2   181   182
   135          -1           0          17      4.8521      4.8521     -9.9028      0.9375   6.000E-01   0.000E+00   3.500E-02   1.000E-01   1.100E+03           F           T   1.025E+03   0.000E+00   1.000E+00   1.000E+00   1.000E+00   1.000E+00   1.000E+00   0.000E+00   0.000E+00   0.000E+00      2   182   183
   136          -1           0          18      4.7877      4.7877     -7.9331      0.0744   6.000E-01   0.000E+00   3.500E-02   1.000E-01   1.100E+03           F           T   1.025E+03   0.000E+00   1.000E+00   1.000E+00   1.000E+00   1.000E+00   1.000E+00   0.000E+00   0.000E+00   0.000E+00      2    18   184
   137          -1           0          18      4.7553      4.7553     -6.9443      0.1487   6.000E-01   0.000E+00   3.500E-02   1.000E-01   1.100E+03           F           T   1.025E+03   0.000E+00   1.000E+00   1.000E+00   1.000E+00   1.000E+00   1.000E+00   0.000E+00   0.000E+00   0.000E+00      2   184   185
   138          -1           0          18      4.7230      4.7230     -5.9554      0.2231   6.000E-01   0.000E+00   3.500E-02   1.000E-01   1.100E+03           F           T   1.025E+03   0.000E+00   1.000E+00   1.000E+00   1.000E+00   1.000E+00   1.000E+00   0.000E+00   0.000E+00   0.000E+00      2   185   186
   139          -1           0          18      4.6906      4.6906     -4.9666      0.2974   6.000E-01   0.000E+00   3.500E-02   1.000E-01   1.100E+03           F           T   1.025E+03   0.000E+00   1.000E+00   1.000E+00   1.000E+00   1.000E+00   1.000E+00   0.000E+00   0.000E+00   0.000E+00      2   186   187
   140          -1           0          18      4.6583      4.6583     -3.9777      0.3718   6.000E-01   0.000E+00   3.500E-02   1.000E-01   1.100E+03           F           T   1.025E+03   0.000E+00   1.000E+00   1.000E+00   1.000E+00   1.000E+00   1.000E+00   0.000E+00   0.000E+00   0.000E+00      2   187   188
   141          -1           0          18      4.6259      4.6259     -2.9889      0.4461   6.000E-01   0.000E+00   3.500E-02   1.000E-01   1.100E+03           F           T   1.025E+03   0.000E+00   1.000E+00   1.000E+00   1.000E+00   1.000E+00   1.000E+00   0.000E+00   0.000E+00   0.000E+00      2   188   189
   142          -1           0          19      4.3542      4.3542      5.3174      0.0833   6.000E-01   0.000E+00   3.500E-02   0.000E+00   0.000E+00           F           F   0.000E+00   0.000E+00   1.000E+00   1.000E+00   1.000E+00   1.000E+00   1.000E+00   0.000E+00   0.000E+00   0.000E+00      2    19   190
   143          -1           0          19      4.3235      4.3235      6.2568      0.1667   6.000E-01   0.000E+00   3.500E-02   0.000E+00   0.000E+00           F           F   0.000E+00   0.000E+00   1.000E+00   1.000E+00   1.000E+00   1.000E+00   1.000E+00   0.000E+00   0.000E+00   0.000E+00      2   190   191
   144          -1           0          19      4.2927      4.2927      7.1962      0.2500   6.000E-01   0.000E+00   3.500E-02   0.000E+00   0.000E+00           F           F   0.000E+00   0.000E+00   1.000E+00   1.000E+00   1.000E+00   1.000E+00   1.000E+00   0.000E+00   0.000E+00   0.000E+00      2   191   192
   145          -1           0          19      4.2620      4.2620      8.1357      0.3333   6.000E-01   0.000E+00   3.500E-02   0.000E+00   0.000E+00           F           F   0.000E+00   0.000E+00   1.000E+00   1.000E+00   1.000E+00   1.000E+00   1.000E+00   0.000E+00   0.000E+00   0.000E+00      2   192   193
   146          -1           0          19      4.2312      4.2312      9.0751      0.4167   6.000E-01   0.000E+00   3.500E-02   0.000E+00   0.000E+00           F           F   0.000E+00   0.000E+00   1.000E+00   1.000E+00   1.000E+00   1.000E+00   1.000E+00   0.000E+00   0.000E+00   0.000E+00      2   193   194
   147          -1           0          19      4.2005      4.2005     10.0145      0.5000   6.000E-01   0.000E+00   3.500E-02   0.000E+00   0.000E+00           F           F   0.000E+00   0.000E+00   1.000E+00   1.000E+00   1.000E+00   1.000E+00   1.000E+00   0.000E+00   0.000E+00   0.000E+00      2   194   195
   148          -1           0          19      4.1697      4.1697     10.9539      0.5833   6.000E-01   0.000E+00   3.500E-02   0.000E+00   0.000E+00           F           F   0.000E+00   0.000E+00   1.000E+00   1.000E+00   1.000E+00   1.000E+00   1.000E+00   0.000E+00   0.000E+00   0.000E+00      2   195   196
   149          -1           0          19      4.1390      4.1390     11.8933      0.6667   6.000E-01   0.000E+00   3.500E-02   0.000E+00   0.000E+00           F           F   0.000E+00   0.000E+00   1.000E+00   1.000E+00   1.000E+00   1.000E+00   1.000E+00   0.000E+00   0.000E+00   0.000E+00      2   196   197
   150          -1           0          19      4.1082      4.1082     12.8328      0.7500   6.000E-01   0.000E+00   3.500E-02   0.000E+00   0.000E+00           F           F   0.000E+00   0.000E+00   1.000E+00   1.000E+00   1.000E+00   1.000E+00   1.000E+00   0.000E+00   0.000E+00   0.000E+00      2   197   198
   151          -1           0          19      4.0775      4.0775     13.7722      0.8333   6.000E-01   0.000E+00   3.500E-02   0.000E+00   0.000E+00           F           F   0.000E+00   0.000E+00   1.000E+00   1.000E+00   1.000E+00   1.000E+00   1.000E+00   0.000E+00   0.000E+00   0.000E+00      2   198   199
   152          -1           0          19      4.0468      4.0468     14.7116      0.9167   6.000E-01   0.000E+00   3.500E-02   0.000E+00   0.000E+00           F           F   0.000E+00   0.000E+00   1.000E+00   1.000E+00   1.000E+00   1.000E+00   1.000E+00   0.000E+00   0.000E+00   0.000E+00      2   199   200
   153          -1           0          21     -5.3009      5.3009    -23.6333      0.0625   6.000E-01   0.000E+00   3.500E-02   1.000E-01   1.100E+03           F           T   1.025E+03   0.000E+00   1.000E+00   1.000E+00   1.000E+00   1.000E+00   1.000E+00   0.000E+00   0.000E+00   0.000E+00      2    21   201
   154          -1           0          21     -5.2689      5.2689    -22.6525      0.1250   6.000E-01   0.000E+00   3.500E-02   1.000E-01   1.100E+03           F           T   1.025E+03   0.000E+00   1.000E+00   1.000E+00   1.000E+00   1.000E+00   1.000E+00   0.000E+00   0.000E+00   0.000E+00      2   201   202
   155          -1           0          21     -5.2368      5.2368    -21.6718      0.1875   6.000E-01   0.000E+00   3.500E-02   1.000E-01   1.100E+03           F           T   1.025E+03   0.000E+00   1.000E+00   1.000E+00   1.000E+00   1.000E+00   1.000E+00   0.000E+00   0.000E+00   0.000E+00      2   202   203
   156          -1           0          21     -5.2048      5.2048    -20.6910      0.2500   6.000E-01   0.000E+00   3.500E-02   1.000E-01   1.100E+03           F           T   1.025E+03   0.000E+00   1.000E+00   1.000E+00   1.000E+00   1.000E+00   1.000E+00   0.000E+00   0.000E+00   0.000E+00      2   203   204
   157          -1           0          21     -5.1727      5.1727    -19.7103      0.3125   6.000E-01   0.000E+00   3.500E-02   1.000E-01   1.100E+03           F           T   1.025E+03   0.000E+00   1.000E+00   1.000E+00   1.000E+00   1.000E+00   1.000E+00   0.000E+00   0.000E+00   0.000E+00      2   204   205
   158          -1           0          21     -5.1406      5.1406    -18.7295      0.3750   6.000E-01   0.000E+00   3.500E-02   1.000E-01   1.100E+03           F           T   1.025E+03   0.000E+00   1.000E+00   1.000E+00   1.000E+00   1.000E+00   1.000E+00   0.000E+00   0.000E+00   0.000E+00      2   205   206
   159          -1           0          21     -5.1086      5.1086    -17.7488      0.4375   6.000E-01   0.000E+00   3.500E-02   1.000E-01   1.100E+03           F           T   1.025E+03   0.000E+00   1.000E+00   1.000E+00   1.000E+00   1.000E+00   1.000E+00   0.000E+00   0.000E+00   0.000E+00      2   206   207
   160          -1           0          21     -5.0765      5.0765    -16.7680      0.5000   6.000E-01   0.000E+00   3.500E-02   1.000E-01   1.100E+03           F           T   1.025E+03   0.000E+00   1.000E+00   1.000E+00   1.000E+00   1.000E+00   1.000E+00   0.000E+00   0.000E+00   0.000E+00      2   207   208
   161          -1           0          21     -5.0444      5.0444    -15.7873      0.5625   6.000E-01   0.000E+00   3.500E-02   1.000E-01   1.100E+03           F           T   1.025E+03   0.000E+00   1.000E+00   1.000E+00   1.000E+00   1.000E+00   1.000E+00   0.000E+00   0.000E+00   0.000E+00      2   208   209
   162          -1           0          21     -5.0124      5.0124    -14.8065      0.6250   6.000E-01   0.000E+00   3.500E-02   1.000E-01   1.100E+03           F           T   1.025E+03   0.000E+00   1.000E+00   1.000E+00   1.000E+00   1.000E+00   1.000E+00   0.000E+00   0.000E+00   0.000E+00      2   209   210
   163          -1           0          21     -4.9803      4.9803    -13.8258      0.6875   6.000E-01   0.000E+00   3.500E-02   1.000E-01   1.100E+03           F           T   1.025E+03   0.000E+00   1.000E+00   1.000E+00   1.000E+00   1.000E+00   1.000E+00   0.000E+00   0.000E+00   0.000E+00      2   210   211
   164          -1           0          21     -4.9482      4.9482    -12.8450      0.7500   6.000E-01   0.000E+00   3.500E-02   1.000E-01   1.100E+03           F           T   1.025E+03   0.000E+00   1.000E+00   1.000E+00   1.000E+00   1.000E+00   1.000E+00   0.000E+00   0.000E+00   0.000E+00      2   211   212
   165          -1           0          21     -4.9162      4.9162    -11.8643      0.8125   6.000E-01   0.000E+00   3.500E-02   1.000E-01   1.100E+03           F           T   1.025E+03   0.000E+00   1.000E+00   1.000E+00   1.000E+00   1.000E+00   1.000E+00   0.000E+00   0.000E+00   0.000E+00      2   212   213
   166          -1           0          21     -4.8841      4.8841    -10.8835      0.8750   6.000E-01   0.000E+00   3.500E-02   1.000E-01   1.100E+03           F           T   1.025E+03   0.000E+00   1.000E+00   1.000E+00   1.000E+00   1.000E+00   1.000E+00   0.000E+00   0.000E+00   0.000E+00      2   213   214
   167          -1           0          21     -4.8521      4.8521     -9.9028      0.9375   6.000E-01   0.000E+00   3.500E-02   1.000E-01   1.100E+03           F           T   1.025E+03   0.000E+00   1.000E+00   1.000E+00   1.000E+00   1.000E+00   1.000E+00   0.000E+00   0.000E+00   0.000E+00      2   214   215
   168          -1           0          22     -4.7877      4.7877     -7.9331      0.0744   6.000E-01   0.000E+00   3.500E-02   1.000E-01   1.100E+03           F           T   1.025E+03   0.000E+00   1.000E+00   1.000E+00   1.000E+00   1.000E+00   1.000E+00   0.000E+00   0.000E+00   0.000E+00      2    22   216
   169          -1           0          22     -4.7553      4.7553     -6.9443      0.1487   6.000E-01   0.000E+00   3.500E-02   1.000E-01   1.100E+03           F           T   1.025E+03   0.000E+00   1.000E+00   1.000E+00   1.000E+00   1.000E+00   1.000E+00   0.000E+00   0.000E+00   0.000E+00      2   216   217
   170          -1           0          22     -4.7230      4.7230     -5.9554      0.2231   6.000E-01   0.000E+00   3.500E-02   1.000E-01   1.100E+03           F           T   1.025E+03   0.000E+00   1.000E+00   1.000E+00   1.000E+00   1.000E+00   1.000E+00   0.000E+00   0.000E+00   0.000E+00      2   217   218
   171          -1           0          22     -4.6906      4.6906     -4.9666      0.2974   6.000E-01   0.000E+00   3.500E-02   1.000E-01   1.100E+03           F           T   1.025E+03   0.000E+00   1.000E+00   1.000E+00   1.000E+00   1.000E+00   1.000E+00   0.000E+00   0.000E+00   0.000E+00      2   218   219
   172          -1           0          22     -4.6583      4.6583     -3.9777      0.3718   6.000E-01   0.000E+00   3.500E-02   1.000E-01   1.100E+03           F           T   1.025E+03   0.000E+00   1.000E+00   1.000E+00   1.000E+00   1.000E+00   1.000E+00   0.000E+00   0.000E+00   0.000E+00      2   219   220
   173          -1           0          22     -4.6259      4.6259     -2.9889      0.4461   6.000E-01   0.000E+00   3.500E-02   1.000E-01   1.100E+03           F           T   1.025E+03   0.000E+00   1.000E+00   1.000E+00   1.000E+00   1.000E+00   1.000E+00   0.000E+00   0.000E+00   0.000E+00      2   220   221
   174          -1           0          23     -4.3542      4.3542      5.3174      0.0833   6.000E-01   0.000E+00   3.500E-02   0.000E+00   0.000E+00           F           F   0.000E+00   0.000E+00   1.000E+00   1.000E+00   1.000E+00   1.000E+00   1.000E+00   0.000E+00   0.000E+00   0.000E+00      2    23   222
   175          -1           0          23     -4.3235      4.3235      6.2568      0.1667   6.000E-01   0.000E+00   3.500E-02   0.000E+00   0.000E+00           F           F   0.000E+00   0.000E+00   1.000E+00   1.000E+00   1.000E+00   1.000E+00   1.000E+00   0.000E+00   0.000E+00   0.000E+00      2   222   223
   176          -1           0          23     -4.2927      4.2927      7.1962      0.2500   6.000E-01   0.000E+00   3.500E-02   0.000E+00   0.000E+00           F           F   0.000E+00   0.000E+00   1.000E+00   1.000E+00   1.000E+00   1.000E+00   1.000E+00   0.000E+00   0.000E+00   0.000E+00      2   223   224
   177          -1           0          23     -4.2620      4.2620      8.1357      0.3333   6.000E-01   0.000E+00   3.500E-02   0.000E+00   0.000E+00           F           F   0.000E+00   0.000E+00   1.000E+00   1.000E+00   1.000E+00   1.000E+00   1.000E+00   0.000E+00   0.000E+00   0.000E+00      2   224   225
   178          -1           0          23     -4.2312      4.2312      9.0751      0.4167   6.000E-01   0.000E+00   3.500E-02   0.000E+00   0.000E+00           F           F   0.000E+00   0.000E+00   1.000E+00   1.000E+00   1.000E+00   1.000E+00   1.000E+00   0.000E+00   0.000E+00   0.000E+00      2   225   226
   179          -1           0          23     -4.2005      4.2005     10.0145      0.5000   6.000E-01   0.000E+00   3.500E-02   0.000E+00   0.000E+00           F           F   0.000E+00   0.000E+00   1.000E+00   1.000E+00   1.000E+00   1.000E+00   1.000E+00   0.000E+00   0.000E+00   0.000E+00      2   226   227
   180          -1           0          23     -4.1697      4.1697     10.9539      0.5833   6.000E-01   0.000E+00   3.500E-02   0.000E+00   0.000E+00           F           F   0.000E+00   0.000E+00   1.000E+00   1.000E+00   1.000E+00   1.000E+00   1.000E+00   0.000E+00   0.000E+00   0.000E+00      2   227   228
   181          -1           0          23     -4.1390      4.1390     11.8933      0.6667   6.000E-01   0.000E+00   3.500E-02   0.000E+00   0.000E+00           F           F   0.000E+00   0.000E+00   1.000E+00   1.000E+00   1.000E+00   1.000E+00   1.000E+00   0.000E+00   0.000E+00   0.000E+00      2   228   229
   182          -1           0          23     -4.1082      4.1082     12.8328      0.7500   6.000E-01   0.000E+00   3.500E-02   0.000E+00   0.000E+00           F           F   0.000E+00   0.000E+00   1.000E+00   1.000E+00   1.000E+00   1.000E+00   1.000E+00   0.000E+00   0.000E+00   0.000E+00      2   229   230
   183          -1           0          23     -4.0775      4.0775     13.7722      0.8333   6.000E-01   0.000E+00   3.500E-02   0.000E+00   0.000E+00           F           F   0.000E+00   0.000E+00   1.000E+00   1.000E+00   1.000E+00   1.000E+00   1.000E+00   0.000E+00   0.000E+00   0.000E+00      2   230   231
   184          -1           0          23     -4.0468      4.0468     14.7116      0.9167   6.000E-01   0.000E+00   3.500E-02   0.000E+00   0.000E+00           F           F   0.000E+00   0.000E+00   1.000E+00   1.000E+00   1.000E+00   1.000E+00   1.000E+00   0.000E+00   0.000E+00   0.000E+00      2   231   232
   185          -1           0          25     -5.3009     -5.3009    -23.6333      0.0625   6.000E-01   0.000E+00   3.500E-02   1.000E-01   1.100E+03           F           T   1.025E+03   0.000E+00   1.000E+00   1.000E+00   1.000E+00   1.000E+00   1.000E+00   0.000E+00   0.000E+00   0.000E+00      2    25   233
   186          -1           0          25     -5.2689     -5.2689    -22.6525      0.1250   6.000E-01   0.000E+00   3.500E-02   1.000E-01   1.100E+03           F           T   1.025E+03   0.000E+00   1.000E+00   1.000E+00   1.000E+00   1.000E+00   1.000E+00   0.000E+00   0.000E+00   0.000E+00      2   233   234
   187          -1           0          25     -5.2368     -5.2368    -21.6718      0.1875   6.000E-01   0.000E+00   3.500E-02   1.000E-01   1.100E+03           F           T   1.025E+03   0.000E+00   1.000E+00   1.000E+00   1.000E+00   1.000E+00   1.000E+00   0.000E+00   0.000E+00   0.000E+00      2   234   235
   188          -1           0          25     -5.2048     -5.2048    -20.6910      0.2500   6.000E-01   0.000E+00   3.500E-02   1.000E-01   1.100E+03           F           T   1.025E+03   0.000E+00   1.000E+00   1.000E+00   1.000E+00   1.000E+00   1.000E+00   0.000E+00   0.000E+00   0.000E+00      2   235   236
   189          -1           0          25     -5.1727     -5.1727    -19.7103      0.3125   6.000E-01   0.000E+00   3.500E-02   1.000E-01   1.100E+03           F           T   1.025E+03   0.000E+00   1.000E+00   1.000E+00   1.000E+00   1.000E+00   1.000E+00   0.000E+00   0.000E+00   0.000E+00      2   236   237
   190          -1           0          25     -5.1406     -5.1406    -18.7295      0.3750   6.000E-01   0.000E+00   3.500E-02   1.000E-01   1.100E+03           F           T   1.025E+03   0.000E+00   1.000E+00   1.000E+00   1.000E+00   1.000E+00   1.000E+00   0.000E+00   0.000E+00   0.000E+00      2   237   238
   191          -1           0          25     -5.1086     -5.1086    -17.7488      0.4375   6.000E-01   0.000E+00   3.500E-02   1.000E-01   1.100E+03           F           T   1.025E+03   0.000E+00   1.000E+00   1.000E+00   1.000E+00   1.000E+00   1.000E+00   0.000E+00   0.000E+00   0.000E+00      2   238   239
   192          -1           0          25     -5.0765     -5.0765    -16.7680      0.5000   6.000E-01   0.000E+00   3.500E-02   1.000E-01   1.100E+03           F           T   1.025E+03   0.000E+00   1.000E+00   1.000E+00   1.000E+00   1.000E+00   1.000E+00   0.000E+00   0.000E+00   0.000E+00      2   239   240
   193          -1           0          25     -5.0444     -5.0444    -15.7873      0.5625   6.000E-01   0.000E+00   3.500E-02   1.000E-01   1.100E+03           F           T   1.025E+03   0.000E+00   1.000E+00   1.000E+00   1.000E+00   1.000E+00   1.000E+00   0.000E+00   0.000E+00   0.000E+00      2   240   241
   194          -1           0          25     -5.0124     -5.0124    -14.8065      0.6250   6.000E-01   0.000E+00   3.500E-02   1.000E-01   1.100E+03           F           T   1.025E+03   0.000E+00   1.000E+00   1.000E+00   1.000E+00   1.000E+00   1.000E+00   0.000E+00   0.000E+00   0.000E+00      2   241   242
   195          -1           0          25     -4.9803     -4.9803    -13.8258      0.6875   6.000E-01   0.000E+00   3.500E-02   1.000E-01   1.100E+03           F           T   1.025E+03   0.000E+00   1.000E+00   1.000E+00   1.000E+00   1.000E+00   1.000E+00   0.000E+00   0.000E+00   0.000E+00      2   242   243
   196          -1           0          25     -4.9482     -4.9482    -12.8450      0.7500   6.000E-01   0.000E+00   3.500E-02   1.000E-01   1.100E+03           F           T   1.025E+03   0.000E+00   1.000E+00   1.000E+00   1.000E+00   1.000E+00   1.000E+00   0.000E+00   0.000E+00   0.000E+00      2   243   244
   197          -1           0          25     -4.9162     -4.9162    -11.8643      0.8125   6.000E-01   0.000E+00   3.500E-02   1.000E-01   1.100E+03           F           T   1.025E+03   0.000E+00   1.000E+00   1.000E+00   1.000E+00   1.000E+00   1.000E+00   0.000E+00   0.000E+00   0.000E+00      2   244   245
   198          -1           0          25     -4.8841     -4.8841    -10.8835      0.8750   6.000E-01   0.000E+00   3.500E-02   1.000E-01   1.100E+03           F           T   1.025E+03   0.000E+00   1.000E+00   1.000E+00   1.000E+00   1.000E+00   1.000E+00   0.000E+00   0.000E+00   0.000E+00      2   245   246
   199          -1           0          25     -4.8521     -4.8521     -9.9028      0.9375   6.000E-01   0.000E+00   3.500E-02   1.000E-01   1.100E+03           F           T   1.025E+03   0.000E+00   1.000E+00   1.000E+00   1.000E+00   1.000E+00   1.000E+00   0.000E+00   0.000E+00   0.000E+00      2   246   247
   200          -1           0          26     -4.7877     -4.7877     -7.9331      0.0744   6.000E-01   0.000E+00   3.500E-02   1.000E-01   1.100E+03           F           T   1.025E+03   0.000E+00   1.000E+00   1.000E+00   1.000E+00   1.000E+00   1.000E+00   0.000E+00   0.000E+00   0.000E+00      2    26   248
   201          -1           0          26     -4.7553     -4.7553     -6.9443      0.1487   6.000E-01   0.000E+00   3.500E-02   1.000E-01   1.100E+03           F           T   1.025E+03   0.000E+00   1.000E+00   1.000E+00   1.000E+00   1.000E+00   1.000E+00   0.000E+00   0.000E+00   0.000E+00      2   248   249
   202          -1           0          26     -4.7230     -4.7230     -5.9554      0.2231   6.000E-01   0.000E+00   3.500E-02   1.000E-01   1.100E+03           F           T   1.025E+03   0.000E+00   1.000E+00   1.000E+00   1.000E+00   1.000E+00   1.000E+00   0.000E+00   0.000E+00   0.000E+00      2   249   250
   203          -1           0          26     -4.6906     -4.6906     -4.9666      0.2974   6.000E-01   0.000E+00   3.500E-02   1.000E-01   1.100E+03           F           T   1.025E+03   0.000E+00   1.000E+00   1.000E+00   1.000E+00   1.000E+00   1.000E+00   0.000E+00   0.000E+00   0.000E+00      2   250   251
   204          -1           0          26     -4.6583     -4.6583     -3.9777      0.3718   6.000E-01   0.000E+00   3.500E-02   1.000E-01   1.100E+03           F           T   1.025E+03   0.000E+00   1.000E+00   1.000E+00   1.000E+00   1.000E+00   1.000E+00   0.000E+00   0.000E+00   0.000E+00      2   251   252
   205          -1           0          26     -4.6259     -4.6259     -2.9889      0.4461   6.000E-01   0.000E+00   3.500E-02   1.000E-01   1.100E+03           F           T   1.025E+03   0.000E+00   1.000E+00   1.000E+00   1.000E+00   1.000E+00   1.000E+00   0.000E+00   0.000E+00   0.000E+00      2   252   253
   206          -1           0          27     -4.3542     -4.3542      5.3174      0.0833   6.000E-01   0.000E+00   3.500E-02   0.000E+00   0.000E+00           F           F   0.000E+00   0.000E+00   1.000E+00   1.000E+00   1.000E+00   1.000E+00   1.000E+00   0.000E+00   0.000E+00   0.000E+00      2    27   254
   207          -1           0          27     -4.3235     -4.3235      6.2568      0.1667   6.000E-01   0.000E+00   3.500E-02   0.000E+00   0.000E+00           F           F   0.000E+00   0.000E+00   1.000E+00   1.000E+00   1.000E+00   1.000E+00   1.000E+00   0.000E+00   0.000E+00   0.000E+00      2   254   255
   208          -1           0          27     -4.2927     -4.2927      7.1962      0.2500   6.000E-01   0.000E+00   3.500E-02   0.000E+00   0.000E+00           F           F   0.000E+00   0.000E+00   1.000E+00   1.000E+00   1.000E+00   1.000E+00   1.000E+00   0.000E+00   0.000E+00   0.000E+00      2   255   256
   209          -1           0          27     -4.2620     -4.2620      8.1357      0.3333   6.000E-01   0.000E+00   3.500E-02   0.000E+00   0.000E+00           F           F   0.000E+00   0.000E+00   1.000E+00   1.000E+00   1.000E+00   1.000E+00   1.000E+00   0.000E+00   0.000E+00   0.000E+00      2   256   257
   210          -1           0          27     -4.2312     -4.2312      9.0751      0.4167   6.000E-01   0.000E+00   3.500E-02   0.000E+00   0.000E+00           F           F   0.000E+00   0.000E+00   1.000E+00   1.000E+00   1.000E+00   1.000E+00   1.000E+00   0.000E+00   0.000E+00   0.000E+00      2   257   258
   211          -1           0          27     -4.2005     -4.2005     10.0145      0.5000   6.000E-01   0.000E+00   3.500E-02   0.000E+00   0.000E+00           F           F   0.000E+00   0.000E+00   1.000E+00   1.000E+00   1.000E+00   1.000E+00   1.000E+00   0.000E+00   0.000E+00   0.000E+00      2   258   259
   212          -1           0          27     -4.1697     -4.1697     10.9539      0.5833   6.000E-01   0.000E+00   3.500E-02   0.000E+00   0.000E+00           F           F   0.000E+00   0.000E+00   1.000E+00   1.000E+00   1.000E+00   1.000E+00   1.000E+00   0.000E+00   0.000E+00   0.000E+00      2   259   260
   213          -1           0          27     -4.1390     -4.1390     11.8933      0.6667   6.000E-01   0.000E+00   3.500E-02   0.000E+00   0.000E+00           F           F   0.000E+00   0.000E+00   1.000E+00   1.000E+00   1.000E+00   1.000E+00   1.000E+00   0.000E+00   0.000E+00   0.000E+00      2   260   261
   214          -1           0          27     -4.1082     -4.1082     12.8328      0.7500   6.000E-01   0.000E+00   3.500E-02   0.000E+00   0.000E+00           F           F   0.000E+00   0.000E+00   1.000E+00   1.000E+00   1.000E+00   1.000E+00   1.000E+00   0.000E+00   0.000E+00   0.000E+00      2   261   262
   215          -1           0          27     -4.0775     -4.0775     13.7722      0.8333   6.000E-01   0.000E+00   3.500E-02   0.000E+00   0.000E+00           F           F   0.000E+00   0.000E+00   1.000E+00   1.000E+00   1.000E+00   1.000E+00   1.000E+00   0.000E+00   0.000E+00   0.000E+00      2   262   263
   216          -1           0          27     -4.0468     -4.0468     14.7116      0.9167   6.000E-01   0.000E+00   3.500E-02   0.000E+00   0.000E+00           F           F   0.000E+00   0.000E+00   1.000E+00   1.000E+00   1.000E+00   1.000E+00   1.000E+00   0.000E+00   0.000E+00   0.000E+00      2   263   264
   217          -1           0          29      5.3009     -5.3009    -23.6333      0.0625   6.000E-01   0.000E+00   3.500E-02   1.000E-01   1.100E+03           F           T   1.025E+03   0.000E+00   1.000E+00   1.000E+00   1.000E+00   1.000E+00   1.000E+00   0.000E+00   0.000E+00   0.000E+00      2    29   265
   218          -1           0          29      5.2689     -5.2689    -22.6525      0.1250   6.000E-01   0.000E+00   3.500E-02   1.000E-01   1.100E+03           F           T   1.025E+03   0.000E+00   1.000E+00   1.000E+00   1.000E+00   1.000E+00   1.000E+00   0.000E+00   0.000E+00   0.000E+00      2   265   266
   219          -1           0          29      5.2368     -5.2368    -21.6718      0.1875   6.000E-01   0.000E+00   3.500E-02   1.000E-01   1.100E+03           F           T   1.025E+03   0.000E+00   1.000E+00   1.000E+00   1.000E+00   1.000E+00   1.000E+00   0.000E+00   0.000E+00   0.000E+00      2   266   267
   220          -1           0          29      5.2048     -5.2048    -20.6910      0.2500   6.000E-01   0.000E+00   3.500E-02   1.000E-01   1.100E+03           F           T   1.025E+03   0.000E+00   1.000E+00   1.000E+00   1.000E+00   1.000E+00   1.000E+00   0.000E+00   0.000E+00   0.000E+00      2   267   268
   221          -1           0          29      5.1727     -5.1727    -19.7103      0.3125   6.000E-01   0.000E+00   3.500E-02   1.000E-01   1.100E+03           F           T   1.025E+03   0.000E+00   1.000E+00   1.000E+00   1.000E+00   1.000E+00   1.000E+00   0.000E+00   0.000E+00   0.000E+00      2   268   269
   222          -1           0          29      5.1406     -5.1406    -18.7295      0.3750   6.000E-01   0.000E+00   3.500E-02   1.000E-01   1.100E+03           F           T   1.025E+03   0.000E+00   1.000E+00   1.000E+00   1.000E+00   1.000E+00   1.000E+00   0.000E+00   0.000E+00   0.000E+00      2   269   270
   223          -1           0          29      5.1086     -5.1086    -17.7488      0.4375   6.000E-01   0.000E+00   3.500E-02   1.000E-01   1.100E+03           F           T   1.025E+03   0.000E+00   1.000E+00   1.000E+00   1.000E+00   1.000E+00   1.000E+00   0.000E+00   0.000E+00   0.000E+00      2   270   271
   224          -1           0          29      5.0765     -5.0765    -16.7680      0.5000   6.000E-01   0.000E+00   3.500E-02   1.000E-01   1.100E+03           F           T   1.025E+03   0.000E+00   1.000E+00   1.000E+00   1.000E+00   1.000E+00   1.000E+00   0.000E+00   0.000E+00   0.000E+00      2   271   272
   225          -1           0          29      5.0444     -5.0444    -15.7873      0.5625   6.000E-01   0.000E+00   3.500E-02   1.000E-01   1.100E+03           F           T   1.025E+03   0.000E+00   1.000E+00   1.000E+00   1.000E+00   1.000E+00   1.000E+00   0.000E+00   0.000E+00   0.000E+00      2   272   273
   226          -1           0          29      5.0124     -5.0124    -14.8065      0.6250   6.000E-01   0.000E+00   3.500E-02   1.000E-01   1.100E+03           F           T   1.025E+03   0.000E+00   1.000E+00   1.000E+00   1.000E+00   1.000E+00   1.000E+00   0.000E+00   0.000E+00   0.000E+00      2   273   274
   227          -1           0          29      4.9803     -4.9803    -13.8258      0.6875   6.000E-01   0.000E+00   3.500E-02   1.000E-01   1.100E+03           F           T   1.025E+03   0.000E+00   1.000E+00   1.000E+00   1.000E+00   1.000E+00   1.000E+00   0.000E+00   0.000E+00   0.000E+00      2   274   275
   228          -1           0          29      4.9482     -4.9482    -12.8450      0.7500   6.000E-01   0.000E+00   3.500E-02   1.000E-01   1.100E+03           F           T   1.025E+03   0.000E+00   1.000E+00   1.000E+00   1.000E+00   1.000E+00   1.000E+00   0.000E+00   0.000E+00   0.000E+00      2   275   276
   229          -1           0          29      4.9162     -4.9162    -11.8643      0.8125   6.000E-01   0.000E+00   3.500E-02   1.000E-01   1.100E+03           F           T   1.025E+03   0.000E+00   1.000E+00   1.000E+00   1.000E+00   1.000E+00   1.000E+00   0.000E+00   0.000E+00   0.000E+00      2   276   277
   230          -1           0          29      4.8841     -4.8841    -10.8835      0.8750   6.000E-01   0.000E+00   3.500E-02   1.000E-01   1.100E+03           F           T   1.025E+03   0.000E+00   1.000E+00   1.000E+00   1.000E+00   1.000E+00   1.000E+00   0.000E+00   0.000E+00   0.000E+00      2   277   278
   231          -1           0          29      4.8521     -4.8521     -9.9028      0.9375   6.000E-01   0.000E+00   3.500E-02   1.000E-01   1.100E+03           F           T   1.025E+03   0.000E+00   1.000E+00   1.000E+00   1.000E+00   1.000E+00   1.000E+00   0.000E+00   0.000E+00   0.000E+00      2   278   279
   232          -1           0          30      4.7877     -4.7877     -7.9331      0.0744   6.000E-01   0.000E+00   3.500E-02   1.000E-01   1.100E+03           F           T   1.025E+03   0.000E+00   1.000E+00   1.000E+00   1.000E+00   1.000E+00   1.000E+00   0.000E+00   0.000E+00   0.000E+00      2    30   280
   233          -1           0          30      4.7553     -4.7553     -6.9443      0.1487   6.000E-01   0.000E+00   3.500E-02   1.000E-01   1.100E+03           F           T   1.025E+03   0.000E+00   1.000E+00   1.000E+00   1.000E+00   1.000E+00   1.000E+00   0.000E+00   0.000E+00   0.000E+00      2   280   281
   234          -1           0          30      4.7230     -4.7230     -5.9554      0.2231   6.000E-01   0.000E+00   3.500E-02   1.000E-01   1.100E+03           F           T   1.025E+03   0.000E+00   1.000E+00   1.000E+00   1.000E+00   1.000E+00   1.000E+00   0.000E+00   0.000E+00   0.000E+00      2   281   282
   235          -1           0          30      4.6906     -4.6906     -4.9666      0.2974   6.000E-01   0.000E+00   3.500E-02   1.000E-01   1.100E+03           F           T   1.025E+03   0.000E+00   1.000E+00   1.000E+00   1.000E+00   1.000E+00   1.000E+00   0.000E+00   0.000E+00   0.000E+00      2   282   283
   236          -1           0          30      4.6583     -4.6583     -3.9777      0.3718   6.000E-01   0.000E+00   3.500E-02   1.000E-01   1.100E+03           F           T   1.025E+03   0.000E+00   1.000E+00   1.000E+00   1.000E+00   1.000E+00   1.000E+00   0.000E+00   0.000E+00   0.000E+00      2   283   284
   237          -1           0          30      4.6259     -4.6259     -2.9889      0.4461   6.000E-01   0.000E+00   3.500E-02   1.000E-01   1.100E+03           F           T   1.025E+03   0.000E+00   1.000E+00   1.000E+00   1.000E+00   1.000E+00   1.000E+00   0.000E+00   0.000E+00   0.000E+00      2   284   285
   238          -1           0          31      4.3542     -4.3542      5.3174      0.0833   6.000E-01   0.000E+00   3.500E-02   0.000E+00   0.000E+00           F           F   0.000E+00   0.000E+00   1.000E+00   1.000E+00   1.000E+00   1.000E+00   1.000E+00   0.000E+00   0.000E+00   0.000E+00      2    31   286
   239          -1           0          31      4.3235     -4.3235      6.2568      0.1667   6.000E-01   0.000E+00   3.500E-02   0.000E+00   0.000E+00           F           F   0.000E+00   0.000E+00   1.000E+00   1.000E+00   1.000E+00   1.000E+00   1.000E+00   0.000E+00   0.000E+00   0.000E+00      2   286   287
   240          -1           0          31      4.2927     -4.2927      7.1962      0.2500   6.000E-01   0.000E+00   3.500E-02   0.000E+00   0.000E+00           F           F   0.000E+00   0.000E+00   1.000E+00   1.000E+00   1.000E+00   1.000E+00   1.000E+00   0.000E+00   0.000E+00   0.000E+00      2   287   288
   241          -1           0          31      4.2620     -4.2620      8.1357      0.3333   6.000E-01   0.000E+00   3.500E-02   0.000E+00   0.000E+00           F           F   0.000E+00   0.000E+00   1.000E+00   1.000E+00   1.000E+00   1.000E+00   1.000E+00   0.000E+00   0.000E+00   0.000E+00      2   288   289
   242          -1           0          31      4.2312     -4.2312      9.0751      0.4167   6.000E-01   0.000E+00   3.500E-02   0.000E+00   0.000E+00           F           F   0.000E+00   0.000E+00   1.000E+00   1.000E+00   1.000E+00   1.000E+00   1.000E+00   0.000E+00   0.000E+00   0.000E+00      2   289   290
   243          -1           0          31      4.2005     -4.2005     10.0145      0.5000   6.000E-01   0.000E+00   3.500E-02   0.000E+00   0.000E+00           F           F   0.000E+00   0.000E+00   1.000E+00   1.000E+00   1.000E+00   1.000E+00   1.000E+00   0.000E+00   0.000E+00   0.000E+00      2   290   291
   244          -1           0          31      4.1697     -4.1697     10.9539      0.5833   6.000E-01   0.000E+00   3.500E-02   0.000E+00   0.000E+00           F           F   0.000E+00   0.000E+00   1.000E+00   1.000E+00   1.000E+00   1.000E+00   1.000E+00   0.000E+00   0.000E+00   0.000E+00      2   291   292
   245          -1           0          31      4.1390     -4.1390     11.8933      0.6667   6.000E-01   0.000E+00   3.500E-02   0.000E+00   0.000E+00           F           F   0.000E+00   0.000E+00   1.000E+00   1.000E+00   1.000E+00   1.000E+00   1.000E+00   0.000E+00   0.000E+00   0.000E+00      2   292   293
   246          -1           0          31      4.1082     -4.1082     12.8328      0.7500   6.000E-01   0.000E+00   3.500E-02   0.000E+00   0.000E+00           F           F   0.000E+00   0.000E+00   1.000E+00   1.000E+00   1.000E+00   1.000E+00   1.000E+00   0.000E+00   0.000E+00   0.000E+00      2   293   294
[...]
       7058     1.52191E+01     1.22167E+01     0.00000E+00    -5.33902E-01         -9.16277E-01
       7059     1.52234E+01     1.22185E+01     0.00000E+00     6.97518E-01          7.98302E-01
       7060     1.52277E+01     1.22202E+01     0.00000E+00    -7.04430E-01          7.91707E-01
       7061     1.52320E+01     1.22219E+01     0.00000E+00     2.09736E-01          1.03838E+00
       7062     1.52364E+01     1.22237E+01     0.00000E+00    -7.02411E-03          1.05895E+00
       7063     1.52407E+01     1.22254E+01     0.00000E+00     8.24377E-01          6.64110E-01
       7064     1.52450E+01     1.22271E+01     0.00000E+00     1.97854E-01          1.03957E+00
       7065     1.52493E+01     1.22288E+01     0.00000E+00    -9.90308E-01          3.71948E-01
       7066     1.52536E+01     1.22306E+01     0.00000E+00    -1.04252E+00         -1.77219E-01
       7067     1.52579E+01     1.22323E+01     0.00000E+00    -7.69444E-01         -7.24863E-01
       7068     1.52623E+01     1.22340E+01     0.00000E+00    -2.36038E-02          1.05647E+00
       7069     1.52666E+01     1.22358E+01     0.00000E+00    -3.28188E-01          1.00408E+00
       7070     1.52709E+01     1.22375E+01     0.00000E+00     4.53392E-01          9.53697E-01
       7071     1.52752E+01     1.22392E+01     0.00000E+00    -2.06375E-01          1.03524E+00
       7072     1.52795E+01     1.22410E+01     0.00000E+00     1.02693E+00         -2.42798E-01
       7073     1.52839E+01     1.22427E+01     0.00000E+00     8.77867E-01          5.84884E-01
       7074     1.52882E+01     1.22444E+01     0.00000E+00    -9.75951E-01         -3.99342E-01
       7075     1.52925E+01     1.22462E+01     0.00000E+00     6.64869E-01         -8.17996E-01
       7076     1.52968E+01     1.22479E+01     0.00000E+00    -1.02913E+00         -2.26457E-01
       7077     1.53012E+01     1.22496E+01     0.00000E+00    -7.85538E-01         -7.01804E-01
       7078     1.53055E+01     1.22513E+01     0.00000E+00    -9.44488E-01          4.65573E-01
       7079     1.53098E+01     1.22531E+01     0.00000E+00     7.49453E-02          1.04996E+00
       7080     1.53141E+01     1.22548E+01     0.00000E+00    -1.97438E-01          1.03357E+00
       7081     1.53185E+01     1.22565E+01     0.00000E+00    -5.00126E-01          9.25388E-01
       7082     1.53228E+01     1.22583E+01     0.00000E+00     7.85850E-01          6.98661E-01
       7083     1.53271E+01     1.22600E+01     0.00000E+00    -7.41176E-01          7.45363E-01
       7084     1.53314E+01     1.22617E+01     0.00000E+00    -7.65846E-01         -7.19450E-01
       7085     1.53358E+01     1.22635E+01     0.00000E+00     9.72733E-01          3.96407E-01
       7086     1.53401E+01     1.22652E+01     0.00000E+00     7.80897E-01          7.01976E-01
       7087     1.53444E+01     1.22669E+01     0.00000E+00     1.00931E+00          2.88245E-01
       7088     1.53488E+01     1.22687E+01     0.00000E+00    -9.81188E-01         -3.71867E-01
       7089     1.53531E+01     1.22704E+01     0.00000E+00     5.41560E-01         -8.98305E-01
       7090     1.53574E+01     1.22721E+01     0.00000E+00     9.77009E-01          3.80678E-01
       7091     1.53618E+01     1.22738E+01     0.00000E+00    -1.00069E+00         -3.11934E-01
       7092     1.53661E+01     1.22756E+01     0.00000E+00    -2.97855E-01         -1.00459E+00
       7093     1.53704E+01     1.22773E+01     0.00000E+00    -9.58515E-01         -4.22362E-01
       7094     1.53748E+01     1.22790E+01     0.00000E+00     8.30764E-01          6.37336E-01
       7095     1.53791E+01     1.22808E+01     0.00000E+00     1.04270E+00          9.15031E-02
       7096     1.53834E+01     1.22825E+01     0.00000E+00     8.61192E-01          5.94282E-01
       7097     1.53878E+01     1.22842E+01     0.00000E+00     2.01150E-01          1.02645E+00
       7098     1.53921E+01     1.22860E+01     0.00000E+00     9.02874E-01          5.27353E-01
       7099     1.53964E+01     1.22877E+01     0.00000E+00     8.21839E-02         -1.04200E+00
       7100     1.54008E+01     1.22894E+01     0.00000E+00    -7.08673E-01          7.67805E-01
       7101     1.54051E+01     1.22912E+01     0.00000E+00    -1.01902E+00          2.29286E-01
       7102     1.54095E+01     1.22929E+01     0.00000E+00     7.27607E-01          7.48862E-01
       7103     1.54138E+01     1.22946E+01     0.00000E+00     1.01191E+00          2.55892E-01
       7104     1.54181E+01     1.22964E+01     0.00000E+00    -4.86298E-01          9.23140E-01
       7105     1.54225E+01     1.22981E+01     0.00000E+00     2.56978E-01          1.01087E+00
       7106     1.54268E+01     1.22998E+01     0.00000E+00    -5.86104E-01          8.62336E-01
       7107     1.54312E+01     1.23015E+01     0.00000E+00    -1.04081E+00         -5.55835E-02
       7108     1.54355E+01     1.23033E+01     0.00000E+00     5.95495E-01         -8.54984E-01
       7109     1.54398E+01     1.23050E+01     0.00000E+00    -8.82740E-01          5.52828E-01
       7110     1.54442E+01     1.23067E+01     0.00000E+00    -8.55226E-01         -5.93864E-01
       7111     1.54485E+01     1.23085E+01     0.00000E+00    -1.04083E+00         -1.63872E-04
       7112     1.54529E+01     1.23102E+01     0.00000E+00     4.24883E-01         -9.49756E-01
       7113     1.54572E+01     1.23119E+01     0.00000E+00     4.61994E-01          9.31861E-01
       7114     1.54616E+01     1.23137E+01     0.00000E+00     5.05242E-01          9.08720E-01
       7115     1.54659E+01     1.23154E+01     0.00000E+00    -7.19662E-01         -7.49913E-01
       7116     1.54703E+01     1.23171E+01     0.00000E+00    -1.03710E+00         -6.28183E-02
       7117     1.54746E+01     1.23189E+01     0.00000E+00     6.71106E-01          7.92706E-01
       7118     1.54790E+01     1.23206E+01     0.00000E+00    -5.38246E-01         -8.87862E-01
       7119     1.54833E+01     1.23223E+01     0.00000E+00     1.17536E-02          1.03784E+00
       7120     1.54877E+01     1.23240E+01     0.00000E+00     1.03384E+00          8.76341E-02
       7121     1.54920E+01     1.23258E+01     0.00000E+00    -9.46179E-01          4.24835E-01
       7122     1.54964E+01     1.23275E+01     0.00000E+00     9.08769E-01         -4.99123E-01
       7123     1.55007E+01     1.23292E+01     0.00000E+00    -8.79446E-02          1.03271E+00
       7124     1.55051E+01     1.23310E+01     0.00000E+00    -6.30163E-01         -8.22417E-01
       7125     1.55094E+01     1.23327E+01     0.00000E+00     1.03164E+00         -9.18517E-02
       7126     1.55138E+01     1.23344E+01     0.00000E+00    -1.03266E+00         -7.47126E-02
       7127     1.55181E+01     1.23362E+01     0.00000E+00     1.02725E+00          1.26379E-01
       7128     1.55225E+01     1.23379E+01     0.00000E+00     4.63278E-01         -9.25117E-01
       7129     1.55268E+01     1.23396E+01     0.00000E+00    -8.56309E-01         -5.80045E-01
       7130     1.55312E+01     1.23414E+01     0.00000E+00    -3.05735E-01         -9.87671E-01
       7131     1.55356E+01     1.23431E+01     0.00000E+00    -8.89257E-01         -5.26726E-01
       7132     1.55399E+01     1.23448E+01     0.00000E+00     1.00857E+00          2.24161E-01
       7133     1.55443E+01     1.23465E+01     0.00000E+00     7.85014E-01         -6.71174E-01
       7134     1.55486E+01     1.23483E+01     0.00000E+00    -9.79943E-01         -3.25092E-01
       7135     1.55530E+01     1.23500E+01     0.00000E+00     9.32382E-01         -4.42596E-01
       7136     1.55573E+01     1.23517E+01     0.00000E+00     5.96538E-01          8.41798E-01
       7137     1.55617E+01     1.23535E+01     0.00000E+00    -5.87073E-01          8.47986E-01
       7138     1.55661E+01     1.23552E+01     0.00000E+00    -7.65541E-01          6.90606E-01
       7139     1.55704E+01     1.23569E+01     0.00000E+00     8.74703E-01          5.45105E-01
       7140     1.55748E+01     1.23587E+01     0.00000E+00     6.74764E-01          7.78586E-01
       7141     1.55792E+01     1.23604E+01     0.00000E+00     1.02517E+00          9.89729E-02
       7142     1.55835E+01     1.23621E+01     0.00000E+00     3.44425E-01          9.70252E-01
       7143     1.55879E+01     1.23639E+01     0.00000E+00    -7.18020E-01         -7.37375E-01
       7144     1.55922E+01     1.23656E+01     0.00000E+00    -1.00058E+00          2.39523E-01
       7145     1.55966E+01     1.23673E+01     0.00000E+00     5.61584E-01          8.61636E-01
       7146     1.56010E+01     1.23690E+01     0.00000E+00    -6.61291E-01         -7.87241E-01
       7147     1.56053E+01     1.23708E+01     0.00000E+00     8.38876E-01          5.93802E-01
       7148     1.56097E+01     1.23725E+01     0.00000E+00     1.43216E-01         -1.01738E+00
       7149     1.56141E+01     1.23742E+01     0.00000E+00    -8.31639E-01          6.02673E-01
       7150     1.56185E+01     1.23760E+01     0.00000E+00    -1.21097E-01         -1.01953E+00
       7151     1.56228E+01     1.23777E+01     0.00000E+00    -9.66621E-01          3.44975E-01
       7152     1.56272E+01     1.23794E+01     0.00000E+00    -8.12966E-01         -6.25870E-01
       7153     1.56316E+01     1.23812E+01     0.00000E+00     9.39641E-01         -4.11056E-01
       7154     1.56359E+01     1.23829E+01     0.00000E+00     2.53715E-01          9.93371E-01
       7155     1.56403E+01     1.23846E+01     0.00000E+00     2.77627E-01         -9.86583E-01
       7156     1.56447E+01     1.23864E+01     0.00000E+00     7.37714E-01          7.10961E-01
       7157     1.56490E+01     1.23881E+01     0.00000E+00    -7.16546E-02         -1.02168E+00
       7158     1.56534E+01     1.23898E+01     0.00000E+00     7.21903E-01         -7.26002E-01
       7159     1.56578E+01     1.23916E+01     0.00000E+00    -9.89079E-01         -2.63083E-01
       7160     1.56622E+01     1.23933E+01     0.00000E+00    -7.10475E-01          7.36196E-01
       7161     1.56665E+01     1.23950E+01     0.00000E+00    -8.69899E-01          5.37871E-01
       7162     1.56709E+01     1.23967E+01     0.00000E+00     1.65349E-02          1.02226E+00
       7163     1.56753E+01     1.23985E+01     0.00000E+00     6.22135E-01          8.10875E-01
       7164     1.56797E+01     1.24002E+01     0.00000E+00     1.63076E-01         -1.00859E+00
       7165     1.56841E+01     1.24019E+01     0.00000E+00    -9.99670E-01         -2.09215E-01
       7166     1.56884E+01     1.24037E+01     0.00000E+00     5.47426E-01         -8.61806E-01
       7167     1.56928E+01     1.24054E+01     0.00000E+00     5.87729E-01         -8.34405E-01
       7168     1.56972E+01     1.24071E+01     0.00000E+00    -9.61763E-01         -3.40503E-01
       7169     1.57016E+01     1.24089E+01     0.00000E+00    -1.01165E+00         -1.29493E-01
       7170     1.57059E+01     1.24106E+01     0.00000E+00    -9.43050E-01         -3.87476E-01
       7171     1.57103E+01     1.24123E+01     0.00000E+00    -4.76325E-01         -9.01038E-01
       7172     1.57147E+01     1.24141E+01     0.00000E+00     1.79642E-01         -1.00288E+00
       7173     1.57191E+01     1.24158E+01     0.00000E+00    -8.31030E-01          5.88811E-01
       7174     1.57235E+01     1.24175E+01     0.00000E+00    -1.01780E+00         -2.59788E-02
       7175     1.57279E+01     1.24192E+01     0.00000E+00    -2.03475E-01         -9.97227E-01
       7176     1.57322E+01     1.24210E+01     0.00000E+00     8.85236E-01         -5.01497E-01
       7177     1.57366E+01     1.24227E+01     0.00000E+00     4.37640E-01         -9.18092E-01
       7178     1.57410E+01     1.24244E+01     0.00000E+00     4.76254E-01          8.98267E-01
       7179     1.57454E+01     1.24262E+01     0.00000E+00     8.78998E-01          5.10239E-01
       7180     1.57498E+01     1.24279E+01     0.00000E+00    -7.76209E-01          6.55561E-01
       7181     1.57542E+01     1.24296E+01     0.00000E+00    -3.70413E-01          9.45694E-01
       7182     1.57586E+01     1.24314E+01     0.00000E+00     4.72981E-02          1.01419E+00
       7183     1.57630E+01     1.24331E+01     0.00000E+00    -1.00489E+00          1.42464E-01
       7184     1.57673E+01     1.24348E+01     0.00000E+00     4.20708E-02         -1.01372E+00
       7185     1.57717E+01     1.24366E+01     0.00000E+00     9.95627E-01         -1.93397E-01
       7186     1.57761E+01     1.24383E+01     0.00000E+00     3.46355E-01          9.52890E-01
       7187     1.57805E+01     1.24400E+01     0.00000E+00     1.00832E+00          1.02692E-01
       7188     1.57849E+01     1.24417E+01     0.00000E+00     9.78956E-01          2.61104E-01
       7189     1.57893E+01     1.24435E+01     0.00000E+00    -1.24769E-01          1.00511E+00
       7190     1.57937E+01     1.24452E+01     0.00000E+00    -4.72342E-01         -8.95543E-01
       7191     1.57981E+01     1.24469E+01     0.00000E+00    -4.91668E-01          8.84677E-01
       7192     1.58025E+01     1.24487E+01     0.00000E+00     8.94277E-01          4.73231E-01
       7193     1.58069E+01     1.24504E+01     0.00000E+00    -9.95839E-01         -1.76843E-01
       7194     1.58113E+01     1.24521E+01     0.00000E+00     1.56984E-01          9.98806E-01
       7195     1.58157E+01     1.24539E+01     0.00000E+00     4.29787E-01          9.14784E-01
       7196     1.58201E+01     1.24556E+01     0.00000E+00    -7.27525E-02          1.00774E+00
       7197     1.58245E+01     1.24573E+01     0.00000E+00     1.00870E+00         -5.14268E-02
       7198     1.58289E+01     1.24591E+01     0.00000E+00     5.34867E-01         -8.56351E-01
       7199     1.58333E+01     1.24608E+01     0.00000E+00    -4.00630E-01          9.26395E-01
       7200     1.58377E+01     1.24625E+01     0.00000E+00     8.07208E-01          6.05327E-01
       7201     1.58421E+01     1.24642E+01     0.00000E+00    -9.90328E-01          1.91175E-01
       7202     1.58465E+01     1.24660E+01     0.00000E+00     4.02234E-02          1.00746E+00
       7203     1.58509E+01     1.24677E+01     0.00000E+00    -8.14010E-01          5.94369E-01
       7204     1.58553E+01     1.24694E+01     0.00000E+00     5.28950E-01         -8.57551E-01
       7205     1.58597E+01     1.24712E+01     0.00000E+00     9.79214E-01         -2.35832E-01
       7206     1.58641E+01     1.24729E+01     0.00000E+00    -9.63930E-01          2.90882E-01
       7207     1.58685E+01     1.24746E+01     0.00000E+00     9.89970E-01         -1.81741E-01
       7208     1.58729E+01     1.24764E+01     0.00000E+00    -4.08250E-02         -1.00534E+00
       7209     1.58773E+01     1.24781E+01     0.00000E+00    -4.07726E-01         -9.19470E-01
       7210     1.58817E+01     1.24798E+01     0.00000E+00    -4.81065E-01         -8.82916E-01
       7211     1.58861E+01     1.24816E+01     0.00000E+00     9.09959E-01          4.26894E-01
       7212     1.58905E+01     1.24833E+01     0.00000E+00    -4.44078E-01         -9.01309E-01
       7213     1.58949E+01     1.24850E+01     0.00000E+00     9.90768E-01          1.65054E-01
       7214     1.58993E+01     1.24867E+01     0.00000E+00     1.34944E-01          9.94965E-01
       7215     1.59037E+01     1.24885E+01     0.00000E+00     1.00352E+00          2.04914E-02
       7216     1.59081E+01     1.24902E+01     0.00000E+00     5.43556E-01         -8.43395E-01
       7217     1.59125E+01     1.24919E+01     0.00000E+00    -8.61984E-01          5.12889E-01
       7218     1.59169E+01     1.24937E+01     0.00000E+00    -9.73281E-01          2.41037E-01
       7219     1.59214E+01     1.24954E+01     0.00000E+00    -9.77173E-01         -2.23184E-01
       7220     1.59258E+01     1.24971E+01     0.00000E+00     4.44476E-01          8.98011E-01
       7221     1.59302E+01     1.24989E+01     0.00000E+00    -9.48185E-01         -3.22850E-01
       7222     1.59346E+01     1.25006E+01     0.00000E+00     4.75705E-01         -8.81077E-01
       7223     1.59390E+01     1.25023E+01     0.00000E+00    -1.00087E+00         -1.22967E-02
       7224     1.59434E+01     1.25041E+01     0.00000E+00    -9.88443E-01         -1.55522E-01
       7225     1.59478E+01     1.25058E+01     0.00000E+00    -3.35274E-01          9.42393E-01
       7226     1.59522E+01     1.25075E+01     0.00000E+00    -6.07109E-01         -7.94506E-01
       7227     1.59567E+01     1.25093E+01     0.00000E+00    -2.97967E-01         -9.54121E-01
       7228     1.59611E+01     1.25110E+01     0.00000E+00     6.81538E-01         -7.30715E-01
       7229     1.59655E+01     1.25127E+01     0.00000E+00     9.83590E-01          1.74066E-01
       7230     1.59699E+01     1.25144E+01     0.00000E+00     7.20725E-01         -6.91096E-01
       7231     1.59743E+01     1.25162E+01     0.00000E+00     9.85519E-01          1.58499E-01
       7232     1.59787E+01     1.25179E+01     0.00000E+00    -9.63200E-01          2.60629E-01
       7233     1.59832E+01     1.25196E+01     0.00000E+00     8.80827E-01          4.68120E-01
       7234     1.59876E+01     1.25214E+01     0.00000E+00     9.89839E-01         -1.20516E-01
       7235     1.59920E+01     1.25231E+01     0.00000E+00    -9.59248E-01          2.71039E-01
       7236     1.59964E+01     1.25248E+01     0.00000E+00     9.96281E-01         -1.88422E-02
       7237     1.60008E+01     1.25266E+01     0.00000E+00     2.14256E-01         -9.72800E-01
       7238     1.60053E+01     1.25283E+01     0.00000E+00     8.82213E-01         -4.61802E-01
       7239     1.60097E+01     1.25300E+01     0.00000E+00    -9.85956E-01         -1.36995E-01
       7240     1.60141E+01     1.25318E+01     0.00000E+00    -7.43906E-01          6.60906E-01
       7241     1.60185E+01     1.25335E+01     0.00000E+00     9.11477E-01          3.98395E-01
       7242     1.60230E+01     1.25352E+01     0.00000E+00     6.02215E-01         -7.91304E-01
       7243     1.60274E+01     1.25369E+01     0.00000E+00     5.65106E-01         -8.17801E-01
       7244     1.60318E+01     1.25387E+01     0.00000E+00     9.77975E-01         -1.76143E-01
       7245     1.60362E+01     1.25404E+01     0.00000E+00    -8.98705E-01          4.23213E-01
       7246     1.60407E+01     1.25421E+01     0.00000E+00     8.05478E-01          5.80779E-01
       7247     1.60451E+01     1.25439E+01     0.00000E+00     7.99041E-02         -9.89462E-01
       7248     1.60495E+01     1.25456E+01     0.00000E+00    -9.68377E-01          2.16761E-01
       7249     1.60540E+01     1.25473E+01     0.00000E+00     1.86852E-01         -9.74241E-01
       7250     1.60584E+01     1.25491E+01     0.00000E+00    -1.27845E-01          9.83381E-01
       7251     1.60628E+01     1.25508E+01     0.00000E+00     6.53362E-01          7.45534E-01
       7252     1.60672E+01     1.25525E+01     0.00000E+00    -3.75095E-01          9.17241E-01
       7253     1.60717E+01     1.25543E+01     0.00000E+00    -6.63607E-01         -7.35510E-01
       7254     1.60761E+01     1.25560E+01     0.00000E+00     9.62655E-01         -2.32314E-01
       7255     1.60805E+01     1.25577E+01     0.00000E+00     9.62752E-01          2.30449E-01
       7256     1.60850E+01     1.25594E+01     0.00000E+00     9.36844E-01          3.18821E-01
       7257     1.60894E+01     1.25612E+01     0.00000E+00     6.22198E-01         -7.69103E-01
       7258     1.60938E+01     1.25629E+01     0.00000E+00    -3.33733E-01          9.30912E-01
       7259     1.60983E+01     1.25646E+01     0.00000E+00    -5.31048E-01          8.33840E-01
       7260     1.61027E+01     1.25664E+01     0.00000E+00     0.00000E+00          0.00000E+00

This summary file was closed on 03-Nov-2016 at 13:46:23.

