
This summary file was generated by HydroDyn v2.05.01 on 03-Nov-2016 at 13:42:20.




Volume Calculations(m^3)
------------------------
  Structure Volume     :    2.30746E+03
  Submerged Volume     :    1.93539E+03
  Marine Growth Volume :   -9.53674E-07
  Ballasted Volume     :    0.00000E+00
              NOTE: Structure, Submerged and Marine Growth volumes are based on members not modelled with WAMIT
                      Ballasted volume is computed from all members which are marked as filled in the HydroDyn input file, regardless of PropPot flag



Buoyancy loads summed about ( 0.0, 0.0, 0.0 )
---------------------------------------------
                                BuoyFxi               BuoyFyi               BuoyFzi               BuoyMxi               BuoyMyi               BuoyMzi 
                                  (N)                   (N)                   (N)                  (N-m)                 (N-m)                 (N-m)  
 External:                  1.892447E-01          1.244247E-01          1.144324E+07          5.235852E+00         -3.588392E+00          5.960464E-01
 Internal:                  0.000000E+00          0.000000E+00          0.000000E+00          0.000000E+00          0.000000E+00          0.000000E+00
 Total   :                  1.892447E-01          1.244247E-01          1.144324E+07          5.235852E+00         -3.588392E+00          5.960464E-01
              NOTE: External buoyancy is based on members not modelled with WAMIT
                      Internal buoyancy is computed from all members which are marked as filled in the HydroDyn input file, regardless of PropPot flag
                    Total buoyancy does not include WAMIT-modelled buoyancy contribution



Weight loads about ( 0.0, 0.0, 0.0 )
------------------------------------
                                 MGFxi                 MGFyi                 MGFzi                 MGMxi                 MGMyi                 MGMzi  
                                  (N)                   (N)                   (N)                  (N-m)                 (N-m)                 (N-m)  
 Marine Growth:             0.000000E+00          0.000000E+00          0.000000E+00          0.000000E+00          0.000000E+00          0.000000E+00



Nodes


   i    JointIndx   JointOvrlp  InpMbrIndx     Nxi         Nyi         Nzi      InpMbrDist       R         dRdZ         t          tMG        MGDens      PropPot   FilledFlag   FillDens   FillFSLoc       Cd          Ca          Cp         AxCa        AxCp        JAxCd       JAxCa       JAxCp    NConn  Connection List
  (-)      (-)         (-)         (-)         (m)         (m)         (m)          (-)         (m)         (-)        (m)         (m)       (kg/m^3)      (-)         (-)       (kg/m^3)       (-)         (-)         (-)         (-)         (-)         (-)         (-)         (-)         (-)      (-)                  
     1           1           0          58    -24.8025      0.0000    -45.0000      1.0000   1.575E+00   0.000E+00   3.500E-02   0.000E+00   0.000E+00           F           F   0.000E+00   0.000E+00   1.000E+00   1.000E+00   1.000E+00   1.000E+00   1.000E+00   1.000E+00   1.000E+00   1.000E+00      1   461
     2           2           0          59     12.4012     21.4796    -45.0000      1.0000   1.575E+00   0.000E+00   3.500E-02   0.000E+00   0.000E+00           F           F   0.000E+00   0.000E+00   1.000E+00   1.000E+00   1.000E+00   1.000E+00   1.000E+00   1.000E+00   1.000E+00   1.000E+00      1   465
     3           3           0          60     12.4012    -21.4796    -45.0000      1.0000   1.575E+00   0.000E+00   3.500E-02   0.000E+00   0.000E+00           F           F   0.000E+00   0.000E+00   1.000E+00   1.000E+00   1.000E+00   1.000E+00   1.000E+00   1.000E+00   1.000E+00   1.000E+00      1   469
     4           4           0           1    -24.8025      0.0000    -42.9793      1.0000   1.575E+00   0.000E+00   3.500E-02   0.000E+00   0.000E+00           F           F   0.000E+00   0.000E+00   1.000E+00   1.000E+00   1.000E+00   1.000E+00   1.000E+00   1.000E+00   1.000E+00   1.000E+00      1    62
     5           5           0          42     12.4012     21.4796    -42.9793      0.0000   6.000E-01   0.000E+00   2.500E-02   0.000E+00   0.000E+00           F           F   0.000E+00   0.000E+00   1.000E+00   1.000E+00   1.000E+00   1.000E+00   1.000E+00   1.000E+00   1.000E+00   1.000E+00      1   360
     6           6           0          44     12.4012    -21.4796    -42.9793      0.0000   6.000E-01   0.000E+00   2.500E-02   0.000E+00   0.000E+00           F           F   0.000E+00   0.000E+00   1.000E+00   1.000E+00   1.000E+00   1.000E+00   1.000E+00   1.000E+00   1.000E+00   1.000E+00      1   402
     7           7           0           4    -24.8025      0.0000    -41.1426      1.0000   1.575E+00   0.000E+00   4.500E-02   0.000E+00   0.000E+00           F           F   0.000E+00   0.000E+00   1.000E+00   1.000E+00   1.000E+00   1.000E+00   1.000E+00   1.000E+00   1.000E+00   1.000E+00      1    67
     8           8           0           5     12.4012     21.4796    -41.1426      1.0000   1.575E+00   0.000E+00   4.500E-02   0.000E+00   0.000E+00           F           F   0.000E+00   0.000E+00   1.000E+00   1.000E+00   1.000E+00   1.000E+00   1.000E+00   1.000E+00   1.000E+00   1.000E+00      1    68
     9           9           0           6     12.4012    -21.4796    -41.1426      1.0000   1.575E+00   0.000E+00   4.500E-02   0.000E+00   0.000E+00           F           F   0.000E+00   0.000E+00   1.000E+00   1.000E+00   1.000E+00   1.000E+00   1.000E+00   1.000E+00   1.000E+00   1.000E+00      1    69
    10          10           0           7    -24.8025      0.0000    -39.3061      1.0000   1.575E+00   0.000E+00   4.500E-02   0.000E+00   0.000E+00           F           F   0.000E+00   0.000E+00   1.000E+00   1.000E+00   1.000E+00   1.000E+00   1.000E+00   1.000E+00   1.000E+00   1.000E+00      1    70
    11          11           0           8     12.4012     21.4796    -39.3061      1.0000   1.575E+00   0.000E+00   4.500E-02   0.000E+00   0.000E+00           F           F   0.000E+00   0.000E+00   1.000E+00   1.000E+00   1.000E+00   1.000E+00   1.000E+00   1.000E+00   1.000E+00   1.000E+00      1    71
    12          12           0           9     12.4012    -21.4796    -39.3061      1.0000   1.575E+00   0.000E+00   4.500E-02   0.000E+00   0.000E+00           F           F   0.000E+00   0.000E+00   1.000E+00   1.000E+00   1.000E+00   1.000E+00   1.000E+00   1.000E+00   1.000E+00   1.000E+00      1    72
    13          13           0          40     -6.2006     10.7398    -42.9793      1.0000   6.000E-01   0.000E+00   2.500E-02   0.000E+00   0.000E+00           F           F   0.000E+00   0.000E+00   1.000E+00   1.000E+00   1.000E+00   1.000E+00   1.000E+00   1.000E+00   1.000E+00   1.000E+00      1   318
    14          14           0          43     12.4012      0.0000    -42.9793      0.0000   6.000E-01   0.000E+00   2.500E-02   0.000E+00   0.000E+00           F           F   0.000E+00   0.000E+00   1.000E+00   1.000E+00   1.000E+00   1.000E+00   1.000E+00   1.000E+00   1.000E+00   1.000E+00      1   381
    15          15           0          45     -6.2006    -10.7398    -42.9793      0.0000   6.000E-01   0.000E+00   2.500E-02   0.000E+00   0.000E+00           F           F   0.000E+00   0.000E+00   1.000E+00   1.000E+00   1.000E+00   1.000E+00   1.000E+00   1.000E+00   1.000E+00   1.000E+00      1   423
    16          16           0          13    -12.4012      0.0000    -36.6655      1.0000   9.375E-01   0.000E+00   2.500E-02   0.000E+00   0.000E+00           F           F   0.000E+00   0.000E+00   1.000E+00   1.000E+00   1.000E+00   1.000E+00   1.000E+00   1.000E+00   1.000E+00   1.000E+00      1   100
    17          17           0          15      6.2006     10.7398    -36.6655      1.0000   9.375E-01   0.000E+00   2.500E-02   0.000E+00   0.000E+00           F           F   0.000E+00   0.000E+00   1.000E+00   1.000E+00   1.000E+00   1.000E+00   1.000E+00   1.000E+00   1.000E+00   1.000E+00      1   126
    18          18           0          17      6.2006    -10.7398    -36.6655      1.0000   9.375E-01   0.000E+00   2.500E-02   0.000E+00   0.000E+00           F           F   0.000E+00   0.000E+00   1.000E+00   1.000E+00   1.000E+00   1.000E+00   1.000E+00   1.000E+00   1.000E+00   1.000E+00      1   152
    19          19           0          19    -12.4017      0.0000    -19.6538      1.0000   1.237E+00   0.000E+00   3.500E-02   0.000E+00   0.000E+00           F           F   0.000E+00   0.000E+00   1.000E+00   1.000E+00   1.000E+00   1.000E+00   1.000E+00   1.000E+00   1.000E+00   1.000E+00      1   188
    20          20           0          21      6.2009     10.7402    -19.6538      1.0000   1.237E+00   0.000E+00   3.500E-02   0.000E+00   0.000E+00           F           F   0.000E+00   0.000E+00   1.000E+00   1.000E+00   1.000E+00   1.000E+00   1.000E+00   1.000E+00   1.000E+00   1.000E+00      1   222
    21          21           0          23      6.2009    -10.7402    -19.6538      1.0000   1.237E+00   0.000E+00   3.500E-02   0.000E+00   0.000E+00           F           F   0.000E+00   0.000E+00   1.000E+00   1.000E+00   1.000E+00   1.000E+00   1.000E+00   1.000E+00   1.000E+00   1.000E+00      1   256
    22          22           0          10    -24.8025      0.0000    -34.0706      1.0000   1.575E+00   0.000E+00   4.500E-02   0.000E+00   0.000E+00           F           F   0.000E+00   0.000E+00   1.000E+00   1.000E+00   1.000E+00   1.000E+00   1.000E+00   1.000E+00   1.000E+00   1.000E+00      1    77
    23          23           0          11     12.4012     21.4796    -34.0706      1.0000   1.575E+00   0.000E+00   4.500E-02   0.000E+00   0.000E+00           F           F   0.000E+00   0.000E+00   1.000E+00   1.000E+00   1.000E+00   1.000E+00   1.000E+00   1.000E+00   1.000E+00   1.000E+00      1    82
    24          24           0          12     12.4012    -21.4796    -34.0706      1.0000   1.575E+00   0.000E+00   4.500E-02   0.000E+00   0.000E+00           F           F   0.000E+00   0.000E+00   1.000E+00   1.000E+00   1.000E+00   1.000E+00   1.000E+00   1.000E+00   1.000E+00   1.000E+00      1    87
    25          25           0          46      0.0000      0.0000    -34.7133      0.0000   1.571E+00   5.111E-02   5.000E-02   0.000E+00   0.000E+00           F           F   0.000E+00   0.000E+00   1.000E+00   1.000E+00   1.000E+00   1.000E+00   1.000E+00   1.000E+00   1.000E+00   1.000E+00      1    46
    26          26           0          20     -6.3101      0.0000    -10.0000      1.0000   1.237E+00   0.000E+00   3.500E-02   0.000E+00   0.000E+00           F           F   0.000E+00   0.000E+00   1.000E+00   1.000E+00   1.000E+00   1.000E+00   1.000E+00   1.000E+00   1.000E+00   1.000E+00      1   199
    27          27           0          22      3.1550      5.4647    -10.0000      1.0000   1.237E+00   0.000E+00   3.500E-02   0.000E+00   0.000E+00           F           F   0.000E+00   0.000E+00   1.000E+00   1.000E+00   1.000E+00   1.000E+00   1.000E+00   1.000E+00   1.000E+00   1.000E+00      1   233
    28          28           0          24      3.1550     -5.4647    -10.0000      1.0000   1.237E+00   0.000E+00   3.500E-02   0.000E+00   0.000E+00           F           F   0.000E+00   0.000E+00   1.000E+00   1.000E+00   1.000E+00   1.000E+00   1.000E+00   1.000E+00   1.000E+00   1.000E+00      1   267
    29          29           0          25     -5.0481      0.0000     -8.0000      1.0000   1.237E+00   0.000E+00   3.500E-02   0.000E+00   0.000E+00           F           F   0.000E+00   0.000E+00   1.000E+00   1.000E+00   1.000E+00   1.000E+00   1.000E+00   1.000E+00   1.000E+00   1.000E+00      1   269
    30          30           0          30      2.5240      4.3718     -8.0000      1.0000   1.237E+00   0.000E+00   3.500E-02   0.000E+00   0.000E+00           F           F   0.000E+00   0.000E+00   1.000E+00   1.000E+00   1.000E+00   1.000E+00   1.000E+00   1.000E+00   1.000E+00   1.000E+00      1   279
    31          31           0          35      2.5240     -4.3718     -8.0000      1.0000   1.237E+00   0.000E+00   3.500E-02   0.000E+00   0.000E+00           F           F   0.000E+00   0.000E+00   1.000E+00   1.000E+00   1.000E+00   1.000E+00   1.000E+00   1.000E+00   1.000E+00   1.000E+00      1   289
    32          32           0          26     -3.7861      0.0000     -6.0000      1.0000   1.237E+00   0.000E+00   3.500E-02   0.000E+00   0.000E+00           F           F   0.000E+00   0.000E+00   1.000E+00   1.000E+00   1.000E+00   1.000E+00   1.000E+00   1.000E+00   1.000E+00   1.000E+00      1   271
    33          33           0          31      1.8930      3.2788     -6.0000      1.0000   1.237E+00   0.000E+00   3.500E-02   0.000E+00   0.000E+00           F           F   0.000E+00   0.000E+00   1.000E+00   1.000E+00   1.000E+00   1.000E+00   1.000E+00   1.000E+00   1.000E+00   1.000E+00      1   281
    34          34           0          36      1.8930     -3.2788     -6.0000      1.0000   1.237E+00   0.000E+00   3.500E-02   0.000E+00   0.000E+00           F           F   0.000E+00   0.000E+00   1.000E+00   1.000E+00   1.000E+00   1.000E+00   1.000E+00   1.000E+00   1.000E+00   1.000E+00      1   291
    35          35           0          27     -2.5240      0.0000     -4.0000      1.0000   1.237E+00   0.000E+00   3.500E-02   0.000E+00   0.000E+00           F           F   0.000E+00   0.000E+00   1.000E+00   1.000E+00   1.000E+00   1.000E+00   1.000E+00   1.000E+00   1.000E+00   1.000E+00      1   273
    36          36           0          32      1.2620      2.1859     -4.0000      1.0000   1.237E+00   0.000E+00   3.500E-02   0.000E+00   0.000E+00           F           F   0.000E+00   0.000E+00   1.000E+00   1.000E+00   1.000E+00   1.000E+00   1.000E+00   1.000E+00   1.000E+00   1.000E+00      1   283
    37          37           0          37      1.2620     -2.1859     -4.0000      1.0000   1.237E+00   0.000E+00   3.500E-02   0.000E+00   0.000E+00           F           F   0.000E+00   0.000E+00   1.000E+00   1.000E+00   1.000E+00   1.000E+00   1.000E+00   1.000E+00   1.000E+00   1.000E+00      1   293
    38          38           0          28     -1.2620      0.0000     -2.0000      1.0000   1.237E+00   0.000E+00   3.500E-02   0.000E+00   0.000E+00           F           F   0.000E+00   0.000E+00   1.000E+00   1.000E+00   1.000E+00   1.000E+00   1.000E+00   1.000E+00   1.000E+00   1.000E+00      1   275
    39          39           0          33      0.6310      1.0929     -2.0000      1.0000   1.237E+00   0.000E+00   3.500E-02   0.000E+00   0.000E+00           F           F   0.000E+00   0.000E+00   1.000E+00   1.000E+00   1.000E+00   1.000E+00   1.000E+00   1.000E+00   1.000E+00   1.000E+00      1   285
    40          40           0          38      0.6310     -1.0929     -2.0000      1.0000   1.237E+00   0.000E+00   3.500E-02   0.000E+00   0.000E+00           F           F   0.000E+00   0.000E+00   1.000E+00   1.000E+00   1.000E+00   1.000E+00   1.000E+00   1.000E+00   1.000E+00   1.000E+00      1   295
    41          41           0          46      0.0000      0.0000    -32.1883      1.0000   1.700E+00   5.111E-02   5.000E-02   0.000E+00   0.000E+00           F           F   0.000E+00   0.000E+00   1.000E+00   1.000E+00   1.000E+00   1.000E+00   1.000E+00   1.000E+00   1.000E+00   1.000E+00      1   425
    42          42           0          47      0.0000      0.0000    -10.0000      1.0000   2.850E+00   5.183E-02   5.000E-02   0.000E+00   0.000E+00           F           F   0.000E+00   0.000E+00   1.000E+00   1.000E+00   1.000E+00   1.000E+00   1.000E+00   1.000E+00   1.000E+00   1.000E+00      1   447
    43          43           0          48      0.0000      0.0000     -8.0000      1.0000   2.850E+00   0.000E+00   5.000E-02   0.000E+00   0.000E+00           F           F   0.000E+00   0.000E+00   1.000E+00   1.000E+00   1.000E+00   1.000E+00   1.000E+00   1.000E+00   1.000E+00   1.000E+00      1   448
    44          44           0          49      0.0000      0.0000     -6.0000      1.0000   2.850E+00   0.000E+00   5.000E-02   0.000E+00   0.000E+00           F           F   0.000E+00   0.000E+00   1.000E+00   1.000E+00   1.000E+00   1.000E+00   1.000E+00   1.000E+00   1.000E+00   1.000E+00      1   449
    45          45           0          50      0.0000      0.0000     -4.0000      1.0000   2.850E+00   0.000E+00   5.000E-02   0.000E+00   0.000E+00           F           F   0.000E+00   0.000E+00   1.000E+00   1.000E+00   1.000E+00   1.000E+00   1.000E+00   1.000E+00   1.000E+00   1.000E+00      1   450
    46          46           0          51      0.0000      0.0000     -2.0000      1.0000   2.850E+00   0.000E+00   5.000E-02   0.000E+00   0.000E+00           F           F   0.000E+00   0.000E+00   1.000E+00   1.000E+00   1.000E+00   1.000E+00   1.000E+00   1.000E+00   1.000E+00   1.000E+00      1   451
    47          47           0          52      0.0000      0.0000      0.0000      1.0000   2.850E+00   0.000E+00   5.000E-02   0.000E+00   0.000E+00           F           F   0.000E+00   0.000E+00   1.000E+00   1.000E+00   1.000E+00   1.000E+00   1.000E+00   1.000E+00   1.000E+00   1.000E+00      1   452
    48          48           0          53      0.0000      0.0000      2.0000      1.0000   2.850E+00   0.000E+00   5.000E-02   0.000E+00   0.000E+00           F           F   0.000E+00   0.000E+00   1.000E+00   1.000E+00   1.000E+00   1.000E+00   1.000E+00   1.000E+00   1.000E+00   1.000E+00      1   453
    49          49           0          54      0.0000      0.0000      4.0000      1.0000   2.850E+00   0.000E+00   5.000E-02   0.000E+00   0.000E+00           F           F   0.000E+00   0.000E+00   1.000E+00   1.000E+00   1.000E+00   1.000E+00   1.000E+00   1.000E+00   1.000E+00   1.000E+00      1   454
    50          50           0          55      0.0000      0.0000      6.0000      1.0000   2.850E+00   0.000E+00   5.000E-02   0.000E+00   0.000E+00           F           F   0.000E+00   0.000E+00   1.000E+00   1.000E+00   1.000E+00   1.000E+00   1.000E+00   1.000E+00   1.000E+00   1.000E+00      1   455
    51          51           0          56      0.0000      0.0000      8.0000      1.0000   2.850E+00   0.000E+00   5.000E-02   0.000E+00   0.000E+00           F           F   0.000E+00   0.000E+00   1.000E+00   1.000E+00   1.000E+00   1.000E+00   1.000E+00   1.000E+00   1.000E+00   1.000E+00      1   456
    52          52           0          57      0.0000      0.0000     10.0000      1.0000   2.850E+00   0.000E+00   5.000E-02   0.000E+00   0.000E+00           F           F   0.000E+00   0.000E+00   1.000E+00   1.000E+00   1.000E+00   1.000E+00   1.000E+00   1.000E+00   1.000E+00   1.000E+00      1   457
    53          53           0          58    -24.8025      0.0000    -50.0000      0.0000   1.575E+00   0.000E+00   3.500E-02   0.000E+00   0.000E+00           F           F   0.000E+00   0.000E+00   1.000E+00   1.000E+00   1.000E+00   1.000E+00   1.000E+00   1.000E+00   1.000E+00   1.000E+00      1    58
    54          54           0          59     12.4012     21.4796    -50.0000      0.0000   1.575E+00   0.000E+00   3.500E-02   0.000E+00   0.000E+00           F           F   0.000E+00   0.000E+00   1.000E+00   1.000E+00   1.000E+00   1.000E+00   1.000E+00   1.000E+00   1.000E+00   1.000E+00      1    59
    55          55           0          60     12.4012    -21.4796    -50.0000      0.0000   1.575E+00   0.000E+00   3.500E-02   0.000E+00   0.000E+00           F           F   0.000E+00   0.000E+00   1.000E+00   1.000E+00   1.000E+00   1.000E+00   1.000E+00   1.000E+00   1.000E+00   1.000E+00      1    60
    56          -1           0           1    -24.8025      0.0000    -44.3264      0.3333   1.575E+00   0.000E+00   3.500E-02   0.000E+00   0.000E+00           F           F   0.000E+00   0.000E+00   1.000E+00   1.000E+00   1.000E+00   1.000E+00   1.000E+00   0.000E+00   0.000E+00   0.000E+00      2     1    61
    57          -1           0           1    -24.8025      0.0000    -43.6529      0.6667   1.575E+00   0.000E+00   3.500E-02   0.000E+00   0.000E+00           F           F   0.000E+00   0.000E+00   1.000E+00   1.000E+00   1.000E+00   1.000E+00   1.000E+00   0.000E+00   0.000E+00   0.000E+00      2    61    62
    58          -1           0           2     12.4012     21.4796    -44.3264      0.3333   1.575E+00   0.000E+00   3.500E-02   0.000E+00   0.000E+00           F           F   0.000E+00   0.000E+00   1.000E+00   1.000E+00   1.000E+00   1.000E+00   1.000E+00   0.000E+00   0.000E+00   0.000E+00      2     2    63
    59          -1           0           2     12.4012     21.4796    -43.6529      0.6667   1.575E+00   0.000E+00   3.500E-02   0.000E+00   0.000E+00           F           F   0.000E+00   0.000E+00   1.000E+00   1.000E+00   1.000E+00   1.000E+00   1.000E+00   0.000E+00   0.000E+00   0.000E+00      2    63    64
    60          -1           0           3     12.4012    -21.4796    -44.3264      0.3333   1.575E+00   0.000E+00   3.500E-02   0.000E+00   0.000E+00           F           F   0.000E+00   0.000E+00   1.000E+00   1.000E+00   1.000E+00   1.000E+00   1.000E+00   0.000E+00   0.000E+00   0.000E+00      2     3    65
    61          -1           0           3     12.4012    -21.4796    -43.6529      0.6667   1.575E+00   0.000E+00   3.500E-02   0.000E+00   0.000E+00           F           F   0.000E+00   0.000E+00   1.000E+00   1.000E+00   1.000E+00   1.000E+00   1.000E+00   0.000E+00   0.000E+00   0.000E+00      2    65    66
    62          -1           0           4    -24.8025      0.0000    -42.0610      0.5000   1.575E+00   0.000E+00   4.500E-02   0.000E+00   0.000E+00           F           F   0.000E+00   0.000E+00   1.000E+00   1.000E+00   1.000E+00   1.000E+00   1.000E+00   0.000E+00   0.000E+00   0.000E+00      2     4    67
    63          -1           0           5     12.4012     21.4796    -42.0610      0.5000   1.575E+00   0.000E+00   4.500E-02   0.000E+00   0.000E+00           F           F   0.000E+00   0.000E+00   1.000E+00   1.000E+00   1.000E+00   1.000E+00   1.000E+00   0.000E+00   0.000E+00   0.000E+00      2     5    68
    64          -1           0           6     12.4012    -21.4796    -42.0610      0.5000   1.575E+00   0.000E+00   4.500E-02   0.000E+00   0.000E+00           F           F   0.000E+00   0.000E+00   1.000E+00   1.000E+00   1.000E+00   1.000E+00   1.000E+00   0.000E+00   0.000E+00   0.000E+00      2     6    69
    65          -1           0           7    -24.8025      0.0000    -40.2243      0.5000   1.575E+00   0.000E+00   4.500E-02   0.000E+00   0.000E+00           F           F   0.000E+00   0.000E+00   1.000E+00   1.000E+00   1.000E+00   1.000E+00   1.000E+00   0.000E+00   0.000E+00   0.000E+00      2     7    70
    66          -1           0           8     12.4012     21.4796    -40.2243      0.5000   1.575E+00   0.000E+00   4.500E-02   0.000E+00   0.000E+00           F           F   0.000E+00   0.000E+00   1.000E+00   1.000E+00   1.000E+00   1.000E+00   1.000E+00   0.000E+00   0.000E+00   0.000E+00      2     8    71
    67          -1           0           9     12.4012    -21.4796    -40.2243      0.5000   1.575E+00   0.000E+00   4.500E-02   0.000E+00   0.000E+00           F           F   0.000E+00   0.000E+00   1.000E+00   1.000E+00   1.000E+00   1.000E+00   1.000E+00   0.000E+00   0.000E+00   0.000E+00      2     9    72
    68          -1           0          10    -24.8025      0.0000    -38.4335      0.1667   1.575E+00   0.000E+00   4.500E-02   0.000E+00   0.000E+00           F           F   0.000E+00   0.000E+00   1.000E+00   1.000E+00   1.000E+00   1.000E+00   1.000E+00   0.000E+00   0.000E+00   0.000E+00      2    10    73
    69          -1           0          10    -24.8025      0.0000    -37.5609      0.3333   1.575E+00   0.000E+00   4.500E-02   0.000E+00   0.000E+00           F           F   0.000E+00   0.000E+00   1.000E+00   1.000E+00   1.000E+00   1.000E+00   1.000E+00   0.000E+00   0.000E+00   0.000E+00      2    73    74
    70          -1           0          10    -24.8025      0.0000    -36.6883      0.5000   1.575E+00   0.000E+00   4.500E-02   0.000E+00   0.000E+00           F           F   0.000E+00   0.000E+00   1.000E+00   1.000E+00   1.000E+00   1.000E+00   1.000E+00   0.000E+00   0.000E+00   0.000E+00      2    74    75
    71          -1           0          10    -24.8025      0.0000    -35.8158      0.6667   1.575E+00   0.000E+00   4.500E-02   0.000E+00   0.000E+00           F           F   0.000E+00   0.000E+00   1.000E+00   1.000E+00   1.000E+00   1.000E+00   1.000E+00   0.000E+00   0.000E+00   0.000E+00      2    75    76
    72          -1           0          10    -24.8025      0.0000    -34.9432      0.8333   1.575E+00   0.000E+00   4.500E-02   0.000E+00   0.000E+00           F           F   0.000E+00   0.000E+00   1.000E+00   1.000E+00   1.000E+00   1.000E+00   1.000E+00   0.000E+00   0.000E+00   0.000E+00      2    76    77
    73          -1           0          11     12.4013     21.4796    -38.4335      0.1667   1.575E+00   0.000E+00   4.500E-02   0.000E+00   0.000E+00           F           F   0.000E+00   0.000E+00   1.000E+00   1.000E+00   1.000E+00   1.000E+00   1.000E+00   0.000E+00   0.000E+00   0.000E+00      2    11    78
    74          -1           0          11     12.4013     21.4796    -37.5609      0.3333   1.575E+00   0.000E+00   4.500E-02   0.000E+00   0.000E+00           F           F   0.000E+00   0.000E+00   1.000E+00   1.000E+00   1.000E+00   1.000E+00   1.000E+00   0.000E+00   0.000E+00   0.000E+00      2    78    79
    75          -1           0          11     12.4013     21.4796    -36.6883      0.5000   1.575E+00   0.000E+00   4.500E-02   0.000E+00   0.000E+00           F           F   0.000E+00   0.000E+00   1.000E+00   1.000E+00   1.000E+00   1.000E+00   1.000E+00   0.000E+00   0.000E+00   0.000E+00      2    79    80
    76          -1           0          11     12.4013     21.4796    -35.8158      0.6667   1.575E+00   0.000E+00   4.500E-02   0.000E+00   0.000E+00           F           F   0.000E+00   0.000E+00   1.000E+00   1.000E+00   1.000E+00   1.000E+00   1.000E+00   0.000E+00   0.000E+00   0.000E+00      2    80    81
    77          -1           0          11     12.4012     21.4796    -34.9432      0.8333   1.575E+00   0.000E+00   4.500E-02   0.000E+00   0.000E+00           F           F   0.000E+00   0.000E+00   1.000E+00   1.000E+00   1.000E+00   1.000E+00   1.000E+00   0.000E+00   0.000E+00   0.000E+00      2    81    82
    78          -1           0          12     12.4013    -21.4796    -38.4335      0.1667   1.575E+00   0.000E+00   4.500E-02   0.000E+00   0.000E+00           F           F   0.000E+00   0.000E+00   1.000E+00   1.000E+00   1.000E+00   1.000E+00   1.000E+00   0.000E+00   0.000E+00   0.000E+00      2    12    83
    79          -1           0          12     12.4013    -21.4796    -37.5609      0.3333   1.575E+00   0.000E+00   4.500E-02   0.000E+00   0.000E+00           F           F   0.000E+00   0.000E+00   1.000E+00   1.000E+00   1.000E+00   1.000E+00   1.000E+00   0.000E+00   0.000E+00   0.000E+00      2    83    84
    80          -1           0          12     12.4013    -21.4796    -36.6883      0.5000   1.575E+00   0.000E+00   4.500E-02   0.000E+00   0.000E+00           F           F   0.000E+00   0.000E+00   1.000E+00   1.000E+00   1.000E+00   1.000E+00   1.000E+00   0.000E+00   0.000E+00   0.000E+00      2    84    85
    81          -1           0          12     12.4013    -21.4796    -35.8158      0.6667   1.575E+00   0.000E+00   4.500E-02   0.000E+00   0.000E+00           F           F   0.000E+00   0.000E+00   1.000E+00   1.000E+00   1.000E+00   1.000E+00   1.000E+00   0.000E+00   0.000E+00   0.000E+00      2    85    86
    82          -1           0          12     12.4012    -21.4796    -34.9432      0.8333   1.575E+00   0.000E+00   4.500E-02   0.000E+00   0.000E+00           F           F   0.000E+00   0.000E+00   1.000E+00   1.000E+00   1.000E+00   1.000E+00   1.000E+00   0.000E+00   0.000E+00   0.000E+00      2    86    87
    83          -1           0          13    -23.9167      0.0000    -40.8228      0.0714   9.375E-01   0.000E+00   2.500E-02   0.000E+00   0.000E+00           F           F   0.000E+00   0.000E+00   1.000E+00   1.000E+00   1.000E+00   1.000E+00   1.000E+00   0.000E+00   0.000E+00   0.000E+00      2    13    88
    84          -1           0          13    -23.0309      0.0000    -40.5030      0.1429   9.375E-01   0.000E+00   2.500E-02   0.000E+00   0.000E+00           F           F   0.000E+00   0.000E+00   1.000E+00   1.000E+00   1.000E+00   1.000E+00   1.000E+00   0.000E+00   0.000E+00   0.000E+00      2    88    89
    85          -1           0          13    -22.1451      0.0000    -40.1832      0.2143   9.375E-01   0.000E+00   2.500E-02   0.000E+00   0.000E+00           F           F   0.000E+00   0.000E+00   1.000E+00   1.000E+00   1.000E+00   1.000E+00   1.000E+00   0.000E+00   0.000E+00   0.000E+00      2    89    90
    86          -1           0          13    -21.2593      0.0000    -39.8634      0.2857   9.375E-01   0.000E+00   2.500E-02   0.000E+00   0.000E+00           F           F   0.000E+00   0.000E+00   1.000E+00   1.000E+00   1.000E+00   1.000E+00   1.000E+00   0.000E+00   0.000E+00   0.000E+00      2    90    91
    87          -1           0          13    -20.3735      0.0000    -39.5436      0.3571   9.375E-01   0.000E+00   2.500E-02   0.000E+00   0.000E+00           F           F   0.000E+00   0.000E+00   1.000E+00   1.000E+00   1.000E+00   1.000E+00   1.000E+00   0.000E+00   0.000E+00   0.000E+00      2    91    92
    88          -1           0          13    -19.4877      0.0000    -39.2238      0.4286   9.375E-01   0.000E+00   2.500E-02   0.000E+00   0.000E+00           F           F   0.000E+00   0.000E+00   1.000E+00   1.000E+00   1.000E+00   1.000E+00   1.000E+00   0.000E+00   0.000E+00   0.000E+00      2    92    93
    89          -1           0          13    -18.6019      0.0000    -38.9040      0.5000   9.375E-01   0.000E+00   2.500E-02   0.000E+00   0.000E+00           F           F   0.000E+00   0.000E+00   1.000E+00   1.000E+00   1.000E+00   1.000E+00   1.000E+00   0.000E+00   0.000E+00   0.000E+00      2    93    94
    90          -1           0          13    -17.7161      0.0000    -38.5842      0.5714   9.375E-01   0.000E+00   2.500E-02   0.000E+00   0.000E+00           F           F   0.000E+00   0.000E+00   1.000E+00   1.000E+00   1.000E+00   1.000E+00   1.000E+00   0.000E+00   0.000E+00   0.000E+00      2    94    95
    91          -1           0          13    -16.8303      0.0000    -38.2644      0.6429   9.375E-01   0.000E+00   2.500E-02   0.000E+00   0.000E+00           F           F   0.000E+00   0.000E+00   1.000E+00   1.000E+00   1.000E+00   1.000E+00   1.000E+00   0.000E+00   0.000E+00   0.000E+00      2    95    96
    92          -1           0          13    -15.9445      0.0000    -37.9446      0.7143   9.375E-01   0.000E+00   2.500E-02   0.000E+00   0.000E+00           F           F   0.000E+00   0.000E+00   1.000E+00   1.000E+00   1.000E+00   1.000E+00   1.000E+00   0.000E+00   0.000E+00   0.000E+00      2    96    97
    93          -1           0          13    -15.0587      0.0000    -37.6248      0.7857   9.375E-01   0.000E+00   2.500E-02   0.000E+00   0.000E+00           F           F   0.000E+00   0.000E+00   1.000E+00   1.000E+00   1.000E+00   1.000E+00   1.000E+00   0.000E+00   0.000E+00   0.000E+00      2    97    98
    94          -1           0          13    -14.1729      0.0000    -37.3050      0.8571   9.375E-01   0.000E+00   2.500E-02   0.000E+00   0.000E+00           F           F   0.000E+00   0.000E+00   1.000E+00   1.000E+00   1.000E+00   1.000E+00   1.000E+00   0.000E+00   0.000E+00   0.000E+00      2    98    99
    95          -1           0          13    -13.2871      0.0000    -36.9852      0.9286   9.375E-01   0.000E+00   2.500E-02   0.000E+00   0.000E+00           F           F   0.000E+00   0.000E+00   1.000E+00   1.000E+00   1.000E+00   1.000E+00   1.000E+00   0.000E+00   0.000E+00   0.000E+00      2    99   100
    96          -1           0          14    -11.5154      0.0000    -36.3457      0.0714   9.375E-01   0.000E+00   2.500E-02   0.000E+00   0.000E+00           F           F   0.000E+00   0.000E+00   1.000E+00   1.000E+00   1.000E+00   1.000E+00   1.000E+00   0.000E+00   0.000E+00   0.000E+00      2    14   101
    97          -1           0          14    -10.6296      0.0000    -36.0259      0.1429   9.375E-01   0.000E+00   2.500E-02   0.000E+00   0.000E+00           F           F   0.000E+00   0.000E+00   1.000E+00   1.000E+00   1.000E+00   1.000E+00   1.000E+00   0.000E+00   0.000E+00   0.000E+00      2   101   102
    98          -1           0          14     -9.7438      0.0000    -35.7061      0.2143   9.375E-01   0.000E+00   2.500E-02   0.000E+00   0.000E+00           F           F   0.000E+00   0.000E+00   1.000E+00   1.000E+00   1.000E+00   1.000E+00   1.000E+00   0.000E+00   0.000E+00   0.000E+00      2   102   103
    99          -1           0          14     -8.8580      0.0000    -35.3863      0.2857   9.375E-01   0.000E+00   2.500E-02   0.000E+00   0.000E+00           F           F   0.000E+00   0.000E+00   1.000E+00   1.000E+00   1.000E+00   1.000E+00   1.000E+00   0.000E+00   0.000E+00   0.000E+00      2   103   104
   100          -1           0          14     -7.9722      0.0000    -35.0665      0.3571   9.375E-01   0.000E+00   2.500E-02   0.000E+00   0.000E+00           F           F   0.000E+00   0.000E+00   1.000E+00   1.000E+00   1.000E+00   1.000E+00   1.000E+00   0.000E+00   0.000E+00   0.000E+00      2   104   105
   101          -1           0          14     -7.0864      0.0000    -34.7467      0.4286   9.375E-01   0.000E+00   2.500E-02   0.000E+00   0.000E+00           F           F   0.000E+00   0.000E+00   1.000E+00   1.000E+00   1.000E+00   1.000E+00   1.000E+00   0.000E+00   0.000E+00   0.000E+00      2   105   106
   102          -1           0          14     -6.2006      0.0000    -34.4269      0.5000   9.375E-01   0.000E+00   2.500E-02   0.000E+00   0.000E+00           F           F   0.000E+00   0.000E+00   1.000E+00   1.000E+00   1.000E+00   1.000E+00   1.000E+00   0.000E+00   0.000E+00   0.000E+00      2   106   107
   103          -1           0          14     -5.3148      0.0000    -34.1071      0.5714   9.375E-01   0.000E+00   2.500E-02   0.000E+00   0.000E+00           F           F   0.000E+00   0.000E+00   1.000E+00   1.000E+00   1.000E+00   1.000E+00   1.000E+00   0.000E+00   0.000E+00   0.000E+00      2   107   108
   104          -1           0          14     -4.4290      0.0000    -33.7873      0.6429   9.375E-01   0.000E+00   2.500E-02   0.000E+00   0.000E+00           F           F   0.000E+00   0.000E+00   1.000E+00   1.000E+00   1.000E+00   1.000E+00   1.000E+00   0.000E+00   0.000E+00   0.000E+00      2   108   109
   105          -1           0          14     -3.5432      0.0000    -33.4675      0.7143   9.375E-01   0.000E+00   2.500E-02   0.000E+00   0.000E+00           F           F   0.000E+00   0.000E+00   1.000E+00   1.000E+00   1.000E+00   1.000E+00   1.000E+00   0.000E+00   0.000E+00   0.000E+00      2   109   110
   106          -1           0          14     -2.6574      0.0000    -33.1477      0.7857   9.375E-01   0.000E+00   2.500E-02   0.000E+00   0.000E+00           F           F   0.000E+00   0.000E+00   1.000E+00   1.000E+00   1.000E+00   1.000E+00   1.000E+00   0.000E+00   0.000E+00   0.000E+00      2   110   111
   107          -1           0          14     -1.7716      0.0000    -32.8279      0.8571   9.375E-01   0.000E+00   2.500E-02   0.000E+00   0.000E+00           F           F   0.000E+00   0.000E+00   1.000E+00   1.000E+00   1.000E+00   1.000E+00   1.000E+00   0.000E+00   0.000E+00   0.000E+00      2   111   112
   108          -1           0          14     -0.8858      0.0000    -32.5081      0.9286   9.375E-01   0.000E+00   2.500E-02   0.000E+00   0.000E+00           F           F   0.000E+00   0.000E+00   1.000E+00   1.000E+00   1.000E+00   1.000E+00   1.000E+00   0.000E+00   0.000E+00   0.000E+00      2   112   113
   109          -1           0          15     11.9583     20.7125    -40.8228      0.0714   9.375E-01   0.000E+00   2.500E-02   0.000E+00   0.000E+00           F           F   0.000E+00   0.000E+00   1.000E+00   1.000E+00   1.000E+00   1.000E+00   1.000E+00   0.000E+00   0.000E+00   0.000E+00      2    15   114
   110          -1           0          15     11.5154     19.9453    -40.5030      0.1429   9.375E-01   0.000E+00   2.500E-02   0.000E+00   0.000E+00           F           F   0.000E+00   0.000E+00   1.000E+00   1.000E+00   1.000E+00   1.000E+00   1.000E+00   0.000E+00   0.000E+00   0.000E+00      2   114   115
   111          -1           0          15     11.0725     19.1782    -40.1832      0.2143   9.375E-01   0.000E+00   2.500E-02   0.000E+00   0.000E+00           F           F   0.000E+00   0.000E+00   1.000E+00   1.000E+00   1.000E+00   1.000E+00   1.000E+00   0.000E+00   0.000E+00   0.000E+00      2   115   116
   112          -1           0          15     10.6296     18.4111    -39.8634      0.2857   9.375E-01   0.000E+00   2.500E-02   0.000E+00   0.000E+00           F           F   0.000E+00   0.000E+00   1.000E+00   1.000E+00   1.000E+00   1.000E+00   1.000E+00   0.000E+00   0.000E+00   0.000E+00      2   116   117
   113          -1           0          15     10.1867     17.6440    -39.5436      0.3571   9.375E-01   0.000E+00   2.500E-02   0.000E+00   0.000E+00           F           F   0.000E+00   0.000E+00   1.000E+00   1.000E+00   1.000E+00   1.000E+00   1.000E+00   0.000E+00   0.000E+00   0.000E+00      2   117   118
   114          -1           0          15      9.7438     16.8768    -39.2238      0.4286   9.375E-01   0.000E+00   2.500E-02   0.000E+00   0.000E+00           F           F   0.000E+00   0.000E+00   1.000E+00   1.000E+00   1.000E+00   1.000E+00   1.000E+00   0.000E+00   0.000E+00   0.000E+00      2   118   119
   115          -1           0          15      9.3009     16.1097    -38.9040      0.5000   9.375E-01   0.000E+00   2.500E-02   0.000E+00   0.000E+00           F           F   0.000E+00   0.000E+00   1.000E+00   1.000E+00   1.000E+00   1.000E+00   1.000E+00   0.000E+00   0.000E+00   0.000E+00      2   119   120
   116          -1           0          15      8.8580     15.3426    -38.5842      0.5714   9.375E-01   0.000E+00   2.500E-02   0.000E+00   0.000E+00           F           F   0.000E+00   0.000E+00   1.000E+00   1.000E+00   1.000E+00   1.000E+00   1.000E+00   0.000E+00   0.000E+00   0.000E+00      2   120   121
   117          -1           0          15      8.4151     14.5754    -38.2644      0.6429   9.375E-01   0.000E+00   2.500E-02   0.000E+00   0.000E+00           F           F   0.000E+00   0.000E+00   1.000E+00   1.000E+00   1.000E+00   1.000E+00   1.000E+00   0.000E+00   0.000E+00   0.000E+00      2   121   122
   118          -1           0          15      7.9722     13.8083    -37.9446      0.7143   9.375E-01   0.000E+00   2.500E-02   0.000E+00   0.000E+00           F           F   0.000E+00   0.000E+00   1.000E+00   1.000E+00   1.000E+00   1.000E+00   1.000E+00   0.000E+00   0.000E+00   0.000E+00      2   122   123
   119          -1           0          15      7.5293     13.0412    -37.6248      0.7857   9.375E-01   0.000E+00   2.500E-02   0.000E+00   0.000E+00           F           F   0.000E+00   0.000E+00   1.000E+00   1.000E+00   1.000E+00   1.000E+00   1.000E+00   0.000E+00   0.000E+00   0.000E+00      2   123   124
   120          -1           0          15      7.0864     12.2741    -37.3050      0.8571   9.375E-01   0.000E+00   2.500E-02   0.000E+00   0.000E+00           F           F   0.000E+00   0.000E+00   1.000E+00   1.000E+00   1.000E+00   1.000E+00   1.000E+00   0.000E+00   0.000E+00   0.000E+00      2   124   125
   121          -1           0          15      6.6435     11.5069    -36.9852      0.9286   9.375E-01   0.000E+00   2.500E-02   0.000E+00   0.000E+00           F           F   0.000E+00   0.000E+00   1.000E+00   1.000E+00   1.000E+00   1.000E+00   1.000E+00   0.000E+00   0.000E+00   0.000E+00      2   125   126
   122          -1           0          16      5.7577      9.9727    -36.3457      0.0714   9.375E-01   0.000E+00   2.500E-02   0.000E+00   0.000E+00           F           F   0.000E+00   0.000E+00   1.000E+00   1.000E+00   1.000E+00   1.000E+00   1.000E+00   0.000E+00   0.000E+00   0.000E+00      2    16   127
   123          -1           0          16      5.3148      9.2055    -36.0259      0.1429   9.375E-01   0.000E+00   2.500E-02   0.000E+00   0.000E+00           F           F   0.000E+00   0.000E+00   1.000E+00   1.000E+00   1.000E+00   1.000E+00   1.000E+00   0.000E+00   0.000E+00   0.000E+00      2   127   128
   124          -1           0          16      4.8719      8.4384    -35.7061      0.2143   9.375E-01   0.000E+00   2.500E-02   0.000E+00   0.000E+00           F           F   0.000E+00   0.000E+00   1.000E+00   1.000E+00   1.000E+00   1.000E+00   1.000E+00   0.000E+00   0.000E+00   0.000E+00      2   128   129
   125          -1           0          16      4.4290      7.6713    -35.3863      0.2857   9.375E-01   0.000E+00   2.500E-02   0.000E+00   0.000E+00           F           F   0.000E+00   0.000E+00   1.000E+00   1.000E+00   1.000E+00   1.000E+00   1.000E+00   0.000E+00   0.000E+00   0.000E+00      2   129   130
   126          -1           0          16      3.9861      6.9042    -35.0665      0.3571   9.375E-01   0.000E+00   2.500E-02   0.000E+00   0.000E+00           F           F   0.000E+00   0.000E+00   1.000E+00   1.000E+00   1.000E+00   1.000E+00   1.000E+00   0.000E+00   0.000E+00   0.000E+00      2   130   131
   127          -1           0          16      3.5432      6.1370    -34.7467      0.4286   9.375E-01   0.000E+00   2.500E-02   0.000E+00   0.000E+00           F           F   0.000E+00   0.000E+00   1.000E+00   1.000E+00   1.000E+00   1.000E+00   1.000E+00   0.000E+00   0.000E+00   0.000E+00      2   131   132
   128          -1           0          16      3.1003      5.3699    -34.4269      0.5000   9.375E-01   0.000E+00   2.500E-02   0.000E+00   0.000E+00           F           F   0.000E+00   0.000E+00   1.000E+00   1.000E+00   1.000E+00   1.000E+00   1.000E+00   0.000E+00   0.000E+00   0.000E+00      2   132   133
   129          -1           0          16      2.6574      4.6028    -34.1071      0.5714   9.375E-01   0.000E+00   2.500E-02   0.000E+00   0.000E+00           F           F   0.000E+00   0.000E+00   1.000E+00   1.000E+00   1.000E+00   1.000E+00   1.000E+00   0.000E+00   0.000E+00   0.000E+00      2   133   134
   130          -1           0          16      2.2145      3.8356    -33.7873      0.6429   9.375E-01   0.000E+00   2.500E-02   0.000E+00   0.000E+00           F           F   0.000E+00   0.000E+00   1.000E+00   1.000E+00   1.000E+00   1.000E+00   1.000E+00   0.000E+00   0.000E+00   0.000E+00      2   134   135
   131          -1           0          16      1.7716      3.0685    -33.4675      0.7143   9.375E-01   0.000E+00   2.500E-02   0.000E+00   0.000E+00           F           F   0.000E+00   0.000E+00   1.000E+00   1.000E+00   1.000E+00   1.000E+00   1.000E+00   0.000E+00   0.000E+00   0.000E+00      2   135   136
   132          -1           0          16      1.3287      2.3014    -33.1477      0.7857   9.375E-01   0.000E+00   2.500E-02   0.000E+00   0.000E+00           F           F   0.000E+00   0.000E+00   1.000E+00   1.000E+00   1.000E+00   1.000E+00   1.000E+00   0.000E+00   0.000E+00   0.000E+00      2   136   137
   133          -1           0          16      0.8858      1.5343    -32.8279      0.8571   9.375E-01   0.000E+00   2.500E-02   0.000E+00   0.000E+00           F           F   0.000E+00   0.000E+00   1.000E+00   1.000E+00   1.000E+00   1.000E+00   1.000E+00   0.000E+00   0.000E+00   0.000E+00      2   137   138
   134          -1           0          16      0.4429      0.7671    -32.5081      0.9286   9.375E-01   0.000E+00   2.500E-02   0.000E+00   0.000E+00           F           F   0.000E+00   0.000E+00   1.000E+00   1.000E+00   1.000E+00   1.000E+00   1.000E+00   0.000E+00   0.000E+00   0.000E+00      2   138   139
   135          -1           0          17     11.9583    -20.7125    -40.8228      0.0714   9.375E-01   0.000E+00   2.500E-02   0.000E+00   0.000E+00           F           F   0.000E+00   0.000E+00   1.000E+00   1.000E+00   1.000E+00   1.000E+00   1.000E+00   0.000E+00   0.000E+00   0.000E+00      2    17   140
   136          -1           0          17     11.5154    -19.9453    -40.5030      0.1429   9.375E-01   0.000E+00   2.500E-02   0.000E+00   0.000E+00           F           F   0.000E+00   0.000E+00   1.000E+00   1.000E+00   1.000E+00   1.000E+00   1.000E+00   0.000E+00   0.000E+00   0.000E+00      2   140   141
   137          -1           0          17     11.0725    -19.1782    -40.1832      0.2143   9.375E-01   0.000E+00   2.500E-02   0.000E+00   0.000E+00           F           F   0.000E+00   0.000E+00   1.000E+00   1.000E+00   1.000E+00   1.000E+00   1.000E+00   0.000E+00   0.000E+00   0.000E+00      2   141   142
   138          -1           0          17     10.6296    -18.4111    -39.8634      0.2857   9.375E-01   0.000E+00   2.500E-02   0.000E+00   0.000E+00           F           F   0.000E+00   0.000E+00   1.000E+00   1.000E+00   1.000E+00   1.000E+00   1.000E+00   0.000E+00   0.000E+00   0.000E+00      2   142   143
   139          -1           0          17     10.1867    -17.6440    -39.5436      0.3571   9.375E-01   0.000E+00   2.500E-02   0.000E+00   0.000E+00           F           F   0.000E+00   0.000E+00   1.000E+00   1.000E+00   1.000E+00   1.000E+00   1.000E+00   0.000E+00   0.000E+00   0.000E+00      2   143   144
   140          -1           0          17      9.7438    -16.8768    -39.2238      0.4286   9.375E-01   0.000E+00   2.500E-02   0.000E+00   0.000E+00           F           F   0.000E+00   0.000E+00   1.000E+00   1.000E+00   1.000E+00   1.000E+00   1.000E+00   0.000E+00   0.000E+00   0.000E+00      2   144   145
   141          -1           0          17      9.3009    -16.1097    -38.9040      0.5000   9.375E-01   0.000E+00   2.500E-02   0.000E+00   0.000E+00           F           F   0.000E+00   0.000E+00   1.000E+00   1.000E+00   1.000E+00   1.000E+00   1.000E+00   0.000E+00   0.000E+00   0.000E+00      2   145   146
   142          -1           0          17      8.8580    -15.3426    -38.5842      0.5714   9.375E-01   0.000E+00   2.500E-02   0.000E+00   0.000E+00           F           F   0.000E+00   0.000E+00   1.000E+00   1.000E+00   1.000E+00   1.000E+00   1.000E+00   0.000E+00   0.000E+00   0.000E+00      2   146   147
   143          -1           0          17      8.4151    -14.5754    -38.2644      0.6429   9.375E-01   0.000E+00   2.500E-02   0.000E+00   0.000E+00           F           F   0.000E+00   0.000E+00   1.000E+00   1.000E+00   1.000E+00   1.000E+00   1.000E+00   0.000E+00   0.000E+00   0.000E+00      2   147   148
   144          -1           0          17      7.9722    -13.8083    -37.9446      0.7143   9.375E-01   0.000E+00   2.500E-02   0.000E+00   0.000E+00           F           F   0.000E+00   0.000E+00   1.000E+00   1.000E+00   1.000E+00   1.000E+00   1.000E+00   0.000E+00   0.000E+00   0.000E+00      2   148   149
   145          -1           0          17      7.5293    -13.0412    -37.6248      0.7857   9.375E-01   0.000E+00   2.500E-02   0.000E+00   0.000E+00           F           F   0.000E+00   0.000E+00   1.000E+00   1.000E+00   1.000E+00   1.000E+00   1.000E+00   0.000E+00   0.000E+00   0.000E+00      2   149   150
   146          -1           0          17      7.0864    -12.2741    -37.3050      0.8571   9.375E-01   0.000E+00   2.500E-02   0.000E+00   0.000E+00           F           F   0.000E+00   0.000E+00   1.000E+00   1.000E+00   1.000E+00   1.000E+00   1.000E+00   0.000E+00   0.000E+00   0.000E+00      2   150   151
   147          -1           0          17      6.6435    -11.5069    -36.9852      0.9286   9.375E-01   0.000E+00   2.500E-02   0.000E+00   0.000E+00           F           F   0.000E+00   0.000E+00   1.000E+00   1.000E+00   1.000E+00   1.000E+00   1.000E+00   0.000E+00   0.000E+00   0.000E+00      2   151   152
   148          -1           0          18      5.7577     -9.9727    -36.3457      0.0714   9.375E-01   0.000E+00   2.500E-02   0.000E+00   0.000E+00           F           F   0.000E+00   0.000E+00   1.000E+00   1.000E+00   1.000E+00   1.000E+00   1.000E+00   0.000E+00   0.000E+00   0.000E+00      2    18   153
   149          -1           0          18      5.3148     -9.2055    -36.0259      0.1429   9.375E-01   0.000E+00   2.500E-02   0.000E+00   0.000E+00           F           F   0.000E+00   0.000E+00   1.000E+00   1.000E+00   1.000E+00   1.000E+00   1.000E+00   0.000E+00   0.000E+00   0.000E+00      2   153   154
   150          -1           0          18      4.8719     -8.4384    -35.7061      0.2143   9.375E-01   0.000E+00   2.500E-02   0.000E+00   0.000E+00           F           F   0.000E+00   0.000E+00   1.000E+00   1.000E+00   1.000E+00   1.000E+00   1.000E+00   0.000E+00   0.000E+00   0.000E+00      2   154   155
   151          -1           0          18      4.4290     -7.6713    -35.3863      0.2857   9.375E-01   0.000E+00   2.500E-02   0.000E+00   0.000E+00           F           F   0.000E+00   0.000E+00   1.000E+00   1.000E+00   1.000E+00   1.000E+00   1.000E+00   0.000E+00   0.000E+00   0.000E+00      2   155   156
   152          -1           0          18      3.9861     -6.9042    -35.0665      0.3571   9.375E-01   0.000E+00   2.500E-02   0.000E+00   0.000E+00           F           F   0.000E+00   0.000E+00   1.000E+00   1.000E+00   1.000E+00   1.000E+00   1.000E+00   0.000E+00   0.000E+00   0.000E+00      2   156   157
   153          -1           0          18      3.5432     -6.1370    -34.7467      0.4286   9.375E-01   0.000E+00   2.500E-02   0.000E+00   0.000E+00           F           F   0.000E+00   0.000E+00   1.000E+00   1.000E+00   1.000E+00   1.000E+00   1.000E+00   0.000E+00   0.000E+00   0.000E+00      2   157   158
   154          -1           0          18      3.1003     -5.3699    -34.4269      0.5000   9.375E-01   0.000E+00   2.500E-02   0.000E+00   0.000E+00           F           F   0.000E+00   0.000E+00   1.000E+00   1.000E+00   1.000E+00   1.000E+00   1.000E+00   0.000E+00   0.000E+00   0.000E+00      2   158   159
   155          -1           0          18      2.6574     -4.6028    -34.1071      0.5714   9.375E-01   0.000E+00   2.500E-02   0.000E+00   0.000E+00           F           F   0.000E+00   0.000E+00   1.000E+00   1.000E+00   1.000E+00   1.000E+00   1.000E+00   0.000E+00   0.000E+00   0.000E+00      2   159   160
   156          -1           0          18      2.2145     -3.8356    -33.7873      0.6429   9.375E-01   0.000E+00   2.500E-02   0.000E+00   0.000E+00           F           F   0.000E+00   0.000E+00   1.000E+00   1.000E+00   1.000E+00   1.000E+00   1.000E+00   0.000E+00   0.000E+00   0.000E+00      2   160   161
   157          -1           0          18      1.7716     -3.0685    -33.4675      0.7143   9.375E-01   0.000E+00   2.500E-02   0.000E+00   0.000E+00           F           F   0.000E+00   0.000E+00   1.000E+00   1.000E+00   1.000E+00   1.000E+00   1.000E+00   0.000E+00   0.000E+00   0.000E+00      2   161   162
   158          -1           0          18      1.3287     -2.3014    -33.1477      0.7857   9.375E-01   0.000E+00   2.500E-02   0.000E+00   0.000E+00           F           F   0.000E+00   0.000E+00   1.000E+00   1.000E+00   1.000E+00   1.000E+00   1.000E+00   0.000E+00   0.000E+00   0.000E+00      2   162   163
   159          -1           0          18      0.8858     -1.5343    -32.8279      0.8571   9.375E-01   0.000E+00   2.500E-02   0.000E+00   0.000E+00           F           F   0.000E+00   0.000E+00   1.000E+00   1.000E+00   1.000E+00   1.000E+00   1.000E+00   0.000E+00   0.000E+00   0.000E+00      2   163   164
   160          -1           0          18      0.4429     -0.7671    -32.5081      0.9286   9.375E-01   0.000E+00   2.500E-02   0.000E+00   0.000E+00           F           F   0.000E+00   0.000E+00   1.000E+00   1.000E+00   1.000E+00   1.000E+00   1.000E+00   0.000E+00   0.000E+00   0.000E+00      2   164   165
   161          -1           0          19    -24.2858      0.0000    -38.4873      0.0417   1.238E+00   0.000E+00   3.500E-02   0.000E+00   0.000E+00           F           F   0.000E+00   0.000E+00   1.000E+00   1.000E+00   1.000E+00   1.000E+00   1.000E+00   0.000E+00   0.000E+00   0.000E+00      2    19   166
   162          -1           0          19    -23.7691      0.0000    -37.6684      0.0833   1.238E+00   0.000E+00   3.500E-02   0.000E+00   0.000E+00           F           F   0.000E+00   0.000E+00   1.000E+00   1.000E+00   1.000E+00   1.000E+00   1.000E+00   0.000E+00   0.000E+00   0.000E+00      2   166   167
   163          -1           0          19    -23.2524      0.0000    -36.8496      0.1250   1.238E+00   0.000E+00   3.500E-02   0.000E+00   0.000E+00           F           F   0.000E+00   0.000E+00   1.000E+00   1.000E+00   1.000E+00   1.000E+00   1.000E+00   0.000E+00   0.000E+00   0.000E+00      2   167   168
   164          -1           0          19    -22.7357      0.0000    -36.0307      0.1667   1.238E+00   0.000E+00   3.500E-02   0.000E+00   0.000E+00           F           F   0.000E+00   0.000E+00   1.000E+00   1.000E+00   1.000E+00   1.000E+00   1.000E+00   0.000E+00   0.000E+00   0.000E+00      2   168   169
   165          -1           0          19    -22.2190      0.0000    -35.2119      0.2083   1.238E+00   0.000E+00   3.500E-02   0.000E+00   0.000E+00           F           F   0.000E+00   0.000E+00   1.000E+00   1.000E+00   1.000E+00   1.000E+00   1.000E+00   0.000E+00   0.000E+00   0.000E+00      2   169   170
   166          -1           0          19    -21.7023      0.0000    -34.3930      0.2500   1.238E+00   0.000E+00   3.500E-02   0.000E+00   0.000E+00           F           F   0.000E+00   0.000E+00   1.000E+00   1.000E+00   1.000E+00   1.000E+00   1.000E+00   0.000E+00   0.000E+00   0.000E+00      2   170   171
   167          -1           0          19    -21.1856      0.0000    -33.5742      0.2917   1.238E+00   0.000E+00   3.500E-02   0.000E+00   0.000E+00           F           F   0.000E+00   0.000E+00   1.000E+00   1.000E+00   1.000E+00   1.000E+00   1.000E+00   0.000E+00   0.000E+00   0.000E+00      2   171   172
   168          -1           0          19    -20.6689      0.0000    -32.7553      0.3333   1.238E+00   0.000E+00   3.500E-02   0.000E+00   0.000E+00           F           F   0.000E+00   0.000E+00   1.000E+00   1.000E+00   1.000E+00   1.000E+00   1.000E+00   0.000E+00   0.000E+00   0.000E+00      2   172   173
   169          -1           0          19    -20.1522      0.0000    -31.9365      0.3750   1.238E+00   0.000E+00   3.500E-02   0.000E+00   0.000E+00           F           F   0.000E+00   0.000E+00   1.000E+00   1.000E+00   1.000E+00   1.000E+00   1.000E+00   0.000E+00   0.000E+00   0.000E+00      2   173   174
   170          -1           0          19    -19.6355      0.0000    -31.1176      0.4167   1.238E+00   0.000E+00   3.500E-02   0.000E+00   0.000E+00           F           F   0.000E+00   0.000E+00   1.000E+00   1.000E+00   1.000E+00   1.000E+00   1.000E+00   0.000E+00   0.000E+00   0.000E+00      2   174   175
   171          -1           0          19    -19.1188      0.0000    -30.2988      0.4583   1.238E+00   0.000E+00   3.500E-02   0.000E+00   0.000E+00           F           F   0.000E+00   0.000E+00   1.000E+00   1.000E+00   1.000E+00   1.000E+00   1.000E+00   0.000E+00   0.000E+00   0.000E+00      2   175   176
   172          -1           0          19    -18.6021      0.0000    -29.4799      0.5000   1.238E+00   0.000E+00   3.500E-02   0.000E+00   0.000E+00           F           F   0.000E+00   0.000E+00   1.000E+00   1.000E+00   1.000E+00   1.000E+00   1.000E+00   0.000E+00   0.000E+00   0.000E+00      2   176   177
   173          -1           0          19    -18.0854      0.0000    -28.6611      0.5417   1.238E+00   0.000E+00   3.500E-02   0.000E+00   0.000E+00           F           F   0.000E+00   0.000E+00   1.000E+00   1.000E+00   1.000E+00   1.000E+00   1.000E+00   0.000E+00   0.000E+00   0.000E+00      2   177   178
   174          -1           0          19    -17.5687      0.0000    -27.8423      0.5833   1.238E+00   0.000E+00   3.500E-02   0.000E+00   0.000E+00           F           F   0.000E+00   0.000E+00   1.000E+00   1.000E+00   1.000E+00   1.000E+00   1.000E+00   0.000E+00   0.000E+00   0.000E+00      2   178   179
   175          -1           0          19    -17.0520      0.0000    -27.0234      0.6250   1.238E+00   0.000E+00   3.500E-02   0.000E+00   0.000E+00           F           F   0.000E+00   0.000E+00   1.000E+00   1.000E+00   1.000E+00   1.000E+00   1.000E+00   0.000E+00   0.000E+00   0.000E+00      2   179   180
   176          -1           0          19    -16.5353      0.0000    -26.2046      0.6667   1.238E+00   0.000E+00   3.500E-02   0.000E+00   0.000E+00           F           F   0.000E+00   0.000E+00   1.000E+00   1.000E+00   1.000E+00   1.000E+00   1.000E+00   0.000E+00   0.000E+00   0.000E+00      2   180   181
   177          -1           0          19    -16.0186      0.0000    -25.3857      0.7083   1.238E+00   0.000E+00   3.500E-02   0.000E+00   0.000E+00           F           F   0.000E+00   0.000E+00   1.000E+00   1.000E+00   1.000E+00   1.000E+00   1.000E+00   0.000E+00   0.000E+00   0.000E+00      2   181   182
   178          -1           0          19    -15.5019      0.0000    -24.5669      0.7500   1.237E+00   0.000E+00   3.500E-02   0.000E+00   0.000E+00           F           F   0.000E+00   0.000E+00   1.000E+00   1.000E+00   1.000E+00   1.000E+00   1.000E+00   0.000E+00   0.000E+00   0.000E+00      2   182   183
   179          -1           0          19    -14.9852      0.0000    -23.7480      0.7917   1.237E+00   0.000E+00   3.500E-02   0.000E+00   0.000E+00           F           F   0.000E+00   0.000E+00   1.000E+00   1.000E+00   1.000E+00   1.000E+00   1.000E+00   0.000E+00   0.000E+00   0.000E+00      2   183   184
   180          -1           0          19    -14.4685      0.0000    -22.9292      0.8333   1.237E+00   0.000E+00   3.500E-02   0.000E+00   0.000E+00           F           F   0.000E+00   0.000E+00   1.000E+00   1.000E+00   1.000E+00   1.000E+00   1.000E+00   0.000E+00   0.000E+00   0.000E+00      2   184   185
   181          -1           0          19    -13.9518      0.0000    -22.1103      0.8750   1.237E+00   0.000E+00   3.500E-02   0.000E+00   0.000E+00           F           F   0.000E+00   0.000E+00   1.000E+00   1.000E+00   1.000E+00   1.000E+00   1.000E+00   0.000E+00   0.000E+00   0.000E+00      2   185   186
   182          -1           0          19    -13.4351      0.0000    -21.2915      0.9167   1.237E+00   0.000E+00   3.500E-02   0.000E+00   0.000E+00           F           F   0.000E+00   0.000E+00   1.000E+00   1.000E+00   1.000E+00   1.000E+00   1.000E+00   0.000E+00   0.000E+00   0.000E+00      2   186   187
   183          -1           0          19    -12.9184      0.0000    -20.4726      0.9583   1.237E+00   0.000E+00   3.500E-02   0.000E+00   0.000E+00           F           F   0.000E+00   0.000E+00   1.000E+00   1.000E+00   1.000E+00   1.000E+00   1.000E+00   0.000E+00   0.000E+00   0.000E+00      2   187   188
   184          -1           0          20    -11.8941      0.0000    -18.8493      0.0833   1.237E+00   0.000E+00   3.500E-02   0.000E+00   0.000E+00           F           F   0.000E+00   0.000E+00   1.000E+00   1.000E+00   1.000E+00   1.000E+00   1.000E+00   0.000E+00   0.000E+00   0.000E+00      2    20   189
   185          -1           0          20    -11.3864      0.0000    -18.0448      0.1667   1.237E+00   0.000E+00   3.500E-02   0.000E+00   0.000E+00           F           F   0.000E+00   0.000E+00   1.000E+00   1.000E+00   1.000E+00   1.000E+00   1.000E+00   0.000E+00   0.000E+00   0.000E+00      2   189   190
   186          -1           0          20    -10.8788      0.0000    -17.2403      0.2500   1.237E+00   0.000E+00   3.500E-02   0.000E+00   0.000E+00           F           F   0.000E+00   0.000E+00   1.000E+00   1.000E+00   1.000E+00   1.000E+00   1.000E+00   0.000E+00   0.000E+00   0.000E+00      2   190   191
   187          -1           0          20    -10.3712      0.0000    -16.4359      0.3333   1.237E+00   0.000E+00   3.500E-02   0.000E+00   0.000E+00           F           F   0.000E+00   0.000E+00   1.000E+00   1.000E+00   1.000E+00   1.000E+00   1.000E+00   0.000E+00   0.000E+00   0.000E+00      2   191   192
   188          -1           0          20     -9.8635      0.0000    -15.6314      0.4167   1.237E+00   0.000E+00   3.500E-02   0.000E+00   0.000E+00           F           F   0.000E+00   0.000E+00   1.000E+00   1.000E+00   1.000E+00   1.000E+00   1.000E+00   0.000E+00   0.000E+00   0.000E+00      2   192   193
   189          -1           0          20     -9.3559      0.0000    -14.8269      0.5000   1.237E+00   0.000E+00   3.500E-02   0.000E+00   0.000E+00           F           F   0.000E+00   0.000E+00   1.000E+00   1.000E+00   1.000E+00   1.000E+00   1.000E+00   0.000E+00   0.000E+00   0.000E+00      2   193   194
   190          -1           0          20     -8.8483      0.0000    -14.0224      0.5833   1.237E+00   0.000E+00   3.500E-02   0.000E+00   0.000E+00           F           F   0.000E+00   0.000E+00   1.000E+00   1.000E+00   1.000E+00   1.000E+00   1.000E+00   0.000E+00   0.000E+00   0.000E+00      2   194   195
   191          -1           0          20     -8.3406      0.0000    -13.2179      0.6667   1.237E+00   0.000E+00   3.500E-02   0.000E+00   0.000E+00           F           F   0.000E+00   0.000E+00   1.000E+00   1.000E+00   1.000E+00   1.000E+00   1.000E+00   0.000E+00   0.000E+00   0.000E+00      2   195   196
   192          -1           0          20     -7.8330      0.0000    -12.4135      0.7500   1.237E+00   0.000E+00   3.500E-02   0.000E+00   0.000E+00           F           F   0.000E+00   0.000E+00   1.000E+00   1.000E+00   1.000E+00   1.000E+00   1.000E+00   0.000E+00   0.000E+00   0.000E+00      2   196   197
   193          -1           0          20     -7.3254      0.0000    -11.6090      0.8333   1.237E+00   0.000E+00   3.500E-02   0.000E+00   0.000E+00           F           F   0.000E+00   0.000E+00   1.000E+00   1.000E+00   1.000E+00   1.000E+00   1.000E+00   0.000E+00   0.000E+00   0.000E+00      2   197   198
   194          -1           0          20     -6.8177      0.0000    -10.8045      0.9167   1.237E+00   0.000E+00   3.500E-02   0.000E+00   0.000E+00           F           F   0.000E+00   0.000E+00   1.000E+00   1.000E+00   1.000E+00   1.000E+00   1.000E+00   0.000E+00   0.000E+00   0.000E+00      2   198   199
   195          -1           0          21     12.1429     21.0321    -38.4873      0.0417   1.238E+00   0.000E+00   3.500E-02   0.000E+00   0.000E+00           F           F   0.000E+00   0.000E+00   1.000E+00   1.000E+00   1.000E+00   1.000E+00   1.000E+00   0.000E+00   0.000E+00   0.000E+00      2    21   200
   196          -1           0          21     11.8846     20.5847    -37.6684      0.0833   1.238E+00   0.000E+00   3.500E-02   0.000E+00   0.000E+00           F           F   0.000E+00   0.000E+00   1.000E+00   1.000E+00   1.000E+00   1.000E+00   1.000E+00   0.000E+00   0.000E+00   0.000E+00      2   200   201
   197          -1           0          21     11.6262     20.1372    -36.8496      0.1250   1.238E+00   0.000E+00   3.500E-02   0.000E+00   0.000E+00           F           F   0.000E+00   0.000E+00   1.000E+00   1.000E+00   1.000E+00   1.000E+00   1.000E+00   0.000E+00   0.000E+00   0.000E+00      2   201   202
   198          -1           0          21     11.3679     19.6897    -36.0307      0.1667   1.238E+00   0.000E+00   3.500E-02   0.000E+00   0.000E+00           F           F   0.000E+00   0.000E+00   1.000E+00   1.000E+00   1.000E+00   1.000E+00   1.000E+00   0.000E+00   0.000E+00   0.000E+00      2   202   203
   199          -1           0          21     11.1095     19.2422    -35.2119      0.2083   1.238E+00   0.000E+00   3.500E-02   0.000E+00   0.000E+00           F           F   0.000E+00   0.000E+00   1.000E+00   1.000E+00   1.000E+00   1.000E+00   1.000E+00   0.000E+00   0.000E+00   0.000E+00      2   203   204
   200          -1           0          21     10.8512     18.7948    -34.3930      0.2500   1.238E+00   0.000E+00   3.500E-02   0.000E+00   0.000E+00           F           F   0.000E+00   0.000E+00   1.000E+00   1.000E+00   1.000E+00   1.000E+00   1.000E+00   0.000E+00   0.000E+00   0.000E+00      2   204   205
   201          -1           0          21     10.5928     18.3473    -33.5742      0.2917   1.238E+00   0.000E+00   3.500E-02   0.000E+00   0.000E+00           F           F   0.000E+00   0.000E+00   1.000E+00   1.000E+00   1.000E+00   1.000E+00   1.000E+00   0.000E+00   0.000E+00   0.000E+00      2   205   206
   202          -1           0          21     10.3345     17.8998    -32.7553      0.3333   1.238E+00   0.000E+00   3.500E-02   0.000E+00   0.000E+00           F           F   0.000E+00   0.000E+00   1.000E+00   1.000E+00   1.000E+00   1.000E+00   1.000E+00   0.000E+00   0.000E+00   0.000E+00      2   206   207
   203          -1           0          21     10.0761     17.4523    -31.9365      0.3750   1.238E+00   0.000E+00   3.500E-02   0.000E+00   0.000E+00           F           F   0.000E+00   0.000E+00   1.000E+00   1.000E+00   1.000E+00   1.000E+00   1.000E+00   0.000E+00   0.000E+00   0.000E+00      2   207   208
   204          -1           0          21      9.8178     17.0049    -31.1176      0.4167   1.238E+00   0.000E+00   3.500E-02   0.000E+00   0.000E+00           F           F   0.000E+00   0.000E+00   1.000E+00   1.000E+00   1.000E+00   1.000E+00   1.000E+00   0.000E+00   0.000E+00   0.000E+00      2   208   209
   205          -1           0          21      9.5594     16.5574    -30.2988      0.4583   1.238E+00   0.000E+00   3.500E-02   0.000E+00   0.000E+00           F           F   0.000E+00   0.000E+00   1.000E+00   1.000E+00   1.000E+00   1.000E+00   1.000E+00   0.000E+00   0.000E+00   0.000E+00      2   209   210
   206          -1           0          21      9.3011     16.1099    -29.4799      0.5000   1.238E+00   0.000E+00   3.500E-02   0.000E+00   0.000E+00           F           F   0.000E+00   0.000E+00   1.000E+00   1.000E+00   1.000E+00   1.000E+00   1.000E+00   0.000E+00   0.000E+00   0.000E+00      2   210   211
   207          -1           0          21      9.0427     15.6624    -28.6611      0.5417   1.238E+00   0.000E+00   3.500E-02   0.000E+00   0.000E+00           F           F   0.000E+00   0.000E+00   1.000E+00   1.000E+00   1.000E+00   1.000E+00   1.000E+00   0.000E+00   0.000E+00   0.000E+00      2   211   212
   208          -1           0          21      8.7844     15.2150    -27.8423      0.5833   1.238E+00   0.000E+00   3.500E-02   0.000E+00   0.000E+00           F           F   0.000E+00   0.000E+00   1.000E+00   1.000E+00   1.000E+00   1.000E+00   1.000E+00   0.000E+00   0.000E+00   0.000E+00      2   212   213
   209          -1           0          21      8.5260     14.7675    -27.0234      0.6250   1.238E+00   0.000E+00   3.500E-02   0.000E+00   0.000E+00           F           F   0.000E+00   0.000E+00   1.000E+00   1.000E+00   1.000E+00   1.000E+00   1.000E+00   0.000E+00   0.000E+00   0.000E+00      2   213   214
   210          -1           0          21      8.2677     14.3200    -26.2046      0.6667   1.238E+00   0.000E+00   3.500E-02   0.000E+00   0.000E+00           F           F   0.000E+00   0.000E+00   1.000E+00   1.000E+00   1.000E+00   1.000E+00   1.000E+00   0.000E+00   0.000E+00   0.000E+00      2   214   215
   211          -1           0          21      8.0093     13.8725    -25.3857      0.7083   1.238E+00   0.000E+00   3.500E-02   0.000E+00   0.000E+00           F           F   0.000E+00   0.000E+00   1.000E+00   1.000E+00   1.000E+00   1.000E+00   1.000E+00   0.000E+00   0.000E+00   0.000E+00      2   215   216
   212          -1           0          21      7.7510     13.4251    -24.5669      0.7500   1.237E+00   0.000E+00   3.500E-02   0.000E+00   0.000E+00           F           F   0.000E+00   0.000E+00   1.000E+00   1.000E+00   1.000E+00   1.000E+00   1.000E+00   0.000E+00   0.000E+00   0.000E+00      2   216   217
   213          -1           0          21      7.4926     12.9776    -23.7480      0.7917   1.237E+00   0.000E+00   3.500E-02   0.000E+00   0.000E+00           F           F   0.000E+00   0.000E+00   1.000E+00   1.000E+00   1.000E+00   1.000E+00   1.000E+00   0.000E+00   0.000E+00   0.000E+00      2   217   218
   214          -1           0          21      7.2343     12.5301    -22.9292      0.8333   1.237E+00   0.000E+00   3.500E-02   0.000E+00   0.000E+00           F           F   0.000E+00   0.000E+00   1.000E+00   1.000E+00   1.000E+00   1.000E+00   1.000E+00   0.000E+00   0.000E+00   0.000E+00      2   218   219
   215          -1           0          21      6.9759     12.0826    -22.1103      0.8750   1.237E+00   0.000E+00   3.500E-02   0.000E+00   0.000E+00           F           F   0.000E+00   0.000E+00   1.000E+00   1.000E+00   1.000E+00   1.000E+00   1.000E+00   0.000E+00   0.000E+00   0.000E+00      2   219   220
   216          -1           0          21      6.7176     11.6352    -21.2915      0.9167   1.237E+00   0.000E+00   3.500E-02   0.000E+00   0.000E+00           F           F   0.000E+00   0.000E+00   1.000E+00   1.000E+00   1.000E+00   1.000E+00   1.000E+00   0.000E+00   0.000E+00   0.000E+00      2   220   221
   217          -1           0          21      6.4592     11.1877    -20.4726      0.9583   1.237E+00   0.000E+00   3.500E-02   0.000E+00   0.000E+00           F           F   0.000E+00   0.000E+00   1.000E+00   1.000E+00   1.000E+00   1.000E+00   1.000E+00   0.000E+00   0.000E+00   0.000E+00      2   221   222
   218          -1           0          22      5.9470     10.3006    -18.8493      0.0833   1.237E+00   0.000E+00   3.500E-02   0.000E+00   0.000E+00           F           F   0.000E+00   0.000E+00   1.000E+00   1.000E+00   1.000E+00   1.000E+00   1.000E+00   0.000E+00   0.000E+00   0.000E+00      2    22   223
   219          -1           0          22      5.6932      9.8610    -18.0448      0.1667   1.237E+00   0.000E+00   3.500E-02   0.000E+00   0.000E+00           F           F   0.000E+00   0.000E+00   1.000E+00   1.000E+00   1.000E+00   1.000E+00   1.000E+00   0.000E+00   0.000E+00   0.000E+00      2   223   224
   220          -1           0          22      5.4394      9.4213    -17.2403      0.2500   1.237E+00   0.000E+00   3.500E-02   0.000E+00   0.000E+00           F           F   0.000E+00   0.000E+00   1.000E+00   1.000E+00   1.000E+00   1.000E+00   1.000E+00   0.000E+00   0.000E+00   0.000E+00      2   224   225
   221          -1           0          22      5.1856      8.9817    -16.4359      0.3333   1.237E+00   0.000E+00   3.500E-02   0.000E+00   0.000E+00           F           F   0.000E+00   0.000E+00   1.000E+00   1.000E+00   1.000E+00   1.000E+00   1.000E+00   0.000E+00   0.000E+00   0.000E+00      2   225   226
   222          -1           0          22      4.9318      8.5421    -15.6314      0.4167   1.237E+00   0.000E+00   3.500E-02   0.000E+00   0.000E+00           F           F   0.000E+00   0.000E+00   1.000E+00   1.000E+00   1.000E+00   1.000E+00   1.000E+00   0.000E+00   0.000E+00   0.000E+00      2   226   227
   223          -1           0          22      4.6779      8.1025    -14.8269      0.5000   1.237E+00   0.000E+00   3.500E-02   0.000E+00   0.000E+00           F           F   0.000E+00   0.000E+00   1.000E+00   1.000E+00   1.000E+00   1.000E+00   1.000E+00   0.000E+00   0.000E+00   0.000E+00      2   227   228
   224          -1           0          22      4.4241      7.6628    -14.0224      0.5833   1.237E+00   0.000E+00   3.500E-02   0.000E+00   0.000E+00           F           F   0.000E+00   0.000E+00   1.000E+00   1.000E+00   1.000E+00   1.000E+00   1.000E+00   0.000E+00   0.000E+00   0.000E+00      2   228   229
   225          -1           0          22      4.1703      7.2232    -13.2179      0.6667   1.237E+00   0.000E+00   3.500E-02   0.000E+00   0.000E+00           F           F   0.000E+00   0.000E+00   1.000E+00   1.000E+00   1.000E+00   1.000E+00   1.000E+00   0.000E+00   0.000E+00   0.000E+00      2   229   230
   226          -1           0          22      3.9165      6.7836    -12.4135      0.7500   1.237E+00   0.000E+00   3.500E-02   0.000E+00   0.000E+00           F           F   0.000E+00   0.000E+00   1.000E+00   1.000E+00   1.000E+00   1.000E+00   1.000E+00   0.000E+00   0.000E+00   0.000E+00      2   230   231
   227          -1           0          22      3.6627      6.3440    -11.6090      0.8333   1.237E+00   0.000E+00   3.500E-02   0.000E+00   0.000E+00           F           F   0.000E+00   0.000E+00   1.000E+00   1.000E+00   1.000E+00   1.000E+00   1.000E+00   0.000E+00   0.000E+00   0.000E+00      2   231   232
   228          -1           0          22      3.4089      5.9043    -10.8045      0.9167   1.237E+00   0.000E+00   3.500E-02   0.000E+00   0.000E+00           F           F   0.000E+00   0.000E+00   1.000E+00   1.000E+00   1.000E+00   1.000E+00   1.000E+00   0.000E+00   0.000E+00   0.000E+00      2   232   233
   229          -1           0          23     12.1429    -21.0321    -38.4873      0.0417   1.238E+00   0.000E+00   3.500E-02   0.000E+00   0.000E+00           F           F   0.000E+00   0.000E+00   1.000E+00   1.000E+00   1.000E+00   1.000E+00   1.000E+00   0.000E+00   0.000E+00   0.000E+00      2    23   234
   230          -1           0          23     11.8846    -20.5847    -37.6684      0.0833   1.238E+00   0.000E+00   3.500E-02   0.000E+00   0.000E+00           F           F   0.000E+00   0.000E+00   1.000E+00   1.000E+00   1.000E+00   1.000E+00   1.000E+00   0.000E+00   0.000E+00   0.000E+00      2   234   235
   231          -1           0          23     11.6262    -20.1372    -36.8496      0.1250   1.238E+00   0.000E+00   3.500E-02   0.000E+00   0.000E+00           F           F   0.000E+00   0.000E+00   1.000E+00   1.000E+00   1.000E+00   1.000E+00   1.000E+00   0.000E+00   0.000E+00   0.000E+00      2   235   236
   232          -1           0          23     11.3679    -19.6897    -36.0307      0.1667   1.238E+00   0.000E+00   3.500E-02   0.000E+00   0.000E+00           F           F   0.000E+00   0.000E+00   1.000E+00   1.000E+00   1.000E+00   1.000E+00   1.000E+00   0.000E+00   0.000E+00   0.000E+00      2   236   237
   233          -1           0          23     11.1095    -19.2422    -35.2119      0.2083   1.238E+00   0.000E+00   3.500E-02   0.000E+00   0.000E+00           F           F   0.000E+00   0.000E+00   1.000E+00   1.000E+00   1.000E+00   1.000E+00   1.000E+00   0.000E+00   0.000E+00   0.000E+00      2   237   238
   234          -1           0          23     10.8512    -18.7948    -34.3930      0.2500   1.238E+00   0.000E+00   3.500E-02   0.000E+00   0.000E+00           F           F   0.000E+00   0.000E+00   1.000E+00   1.000E+00   1.000E+00   1.000E+00   1.000E+00   0.000E+00   0.000E+00   0.000E+00      2   238   239
   235          -1           0          23     10.5928    -18.3473    -33.5742      0.2917   1.238E+00   0.000E+00   3.500E-02   0.000E+00   0.000E+00           F           F   0.000E+00   0.000E+00   1.000E+00   1.000E+00   1.000E+00   1.000E+00   1.000E+00   0.000E+00   0.000E+00   0.000E+00      2   239   240
   236          -1           0          23     10.3345    -17.8998    -32.7553      0.3333   1.238E+00   0.000E+00   3.500E-02   0.000E+00   0.000E+00           F           F   0.000E+00   0.000E+00   1.000E+00   1.000E+00   1.000E+00   1.000E+00   1.000E+00   0.000E+00   0.000E+00   0.000E+00      2   240   241
   237          -1           0          23     10.0761    -17.4523    -31.9365      0.3750   1.238E+00   0.000E+00   3.500E-02   0.000E+00   0.000E+00           F           F   0.000E+00   0.000E+00   1.000E+00   1.000E+00   1.000E+00   1.000E+00   1.000E+00   0.000E+00   0.000E+00   0.000E+00      2   241   242
   238          -1           0          23      9.8178    -17.0049    -31.1176      0.4167   1.238E+00   0.000E+00   3.500E-02   0.000E+00   0.000E+00           F           F   0.000E+00   0.000E+00   1.000E+00   1.000E+00   1.000E+00   1.000E+00   1.000E+00   0.000E+00   0.000E+00   0.000E+00      2   242   243
   239          -1           0          23      9.5594    -16.5574    -30.2988      0.4583   1.238E+00   0.000E+00   3.500E-02   0.000E+00   0.000E+00           F           F   0.000E+00   0.000E+00   1.000E+00   1.000E+00   1.000E+00   1.000E+00   1.000E+00   0.000E+00   0.000E+00   0.000E+00      2   243   244
   240          -1           0          23      9.3011    -16.1099    -29.4799      0.5000   1.238E+00   0.000E+00   3.500E-02   0.000E+00   0.000E+00           F           F   0.000E+00   0.000E+00   1.000E+00   1.000E+00   1.000E+00   1.000E+00   1.000E+00   0.000E+00   0.000E+00   0.000E+00      2   244   245
   241          -1           0          23      9.0427    -15.6624    -28.6611      0.5417   1.238E+00   0.000E+00   3.500E-02   0.000E+00   0.000E+00           F           F   0.000E+00   0.000E+00   1.000E+00   1.000E+00   1.000E+00   1.000E+00   1.000E+00   0.000E+00   0.000E+00   0.000E+00      2   245   246
   242          -1           0          23      8.7844    -15.2150    -27.8423      0.5833   1.238E+00   0.000E+00   3.500E-02   0.000E+00   0.000E+00           F           F   0.000E+00   0.000E+00   1.000E+00   1.000E+00   1.000E+00   1.000E+00   1.000E+00   0.000E+00   0.000E+00   0.000E+00      2   246   247
   243          -1           0          23      8.5260    -14.7675    -27.0234      0.6250   1.238E+00   0.000E+00   3.500E-02   0.000E+00   0.000E+00           F           F   0.000E+00   0.000E+00   1.000E+00   1.000E+00   1.000E+00   1.000E+00   1.000E+00   0.000E+00   0.000E+00   0.000E+00      2   247   248
   244          -1           0          23      8.2677    -14.3200    -26.2046      0.6667   1.238E+00   0.000E+00   3.500E-02   0.000E+00   0.000E+00           F           F   0.000E+00   0.000E+00   1.000E+00   1.000E+00   1.000E+00   1.000E+00   1.000E+00   0.000E+00   0.000E+00   0.000E+00      2   248   249
   245          -1           0          23      8.0093    -13.8725    -25.3857      0.7083   1.238E+00   0.000E+00   3.500E-02   0.000E+00   0.000E+00           F           F   0.000E+00   0.000E+00   1.000E+00   1.000E+00   1.000E+00   1.000E+00   1.000E+00   0.000E+00   0.000E+00   0.000E+00      2   249   250
[...]
       7058     1.52191E+01     1.22167E+01     0.00000E+00     0.00000E+00          0.00000E+00
       7059     1.52234E+01     1.22185E+01     0.00000E+00     0.00000E+00          0.00000E+00
       7060     1.52277E+01     1.22202E+01     0.00000E+00     0.00000E+00          0.00000E+00
       7061     1.52320E+01     1.22219E+01     0.00000E+00     0.00000E+00          0.00000E+00
       7062     1.52364E+01     1.22237E+01     0.00000E+00     0.00000E+00          0.00000E+00
       7063     1.52407E+01     1.22254E+01     0.00000E+00     0.00000E+00          0.00000E+00
       7064     1.52450E+01     1.22271E+01     0.00000E+00     0.00000E+00          0.00000E+00
       7065     1.52493E+01     1.22288E+01     0.00000E+00     0.00000E+00          0.00000E+00
       7066     1.52536E+01     1.22306E+01     0.00000E+00     0.00000E+00          0.00000E+00
       7067     1.52579E+01     1.22323E+01     0.00000E+00     0.00000E+00          0.00000E+00
       7068     1.52623E+01     1.22340E+01     0.00000E+00     0.00000E+00          0.00000E+00
       7069     1.52666E+01     1.22358E+01     0.00000E+00     0.00000E+00          0.00000E+00
       7070     1.52709E+01     1.22375E+01     0.00000E+00     0.00000E+00          0.00000E+00
       7071     1.52752E+01     1.22392E+01     0.00000E+00     0.00000E+00          0.00000E+00
       7072     1.52795E+01     1.22410E+01     0.00000E+00     0.00000E+00          0.00000E+00
       7073     1.52839E+01     1.22427E+01     0.00000E+00     0.00000E+00          0.00000E+00
       7074     1.52882E+01     1.22444E+01     0.00000E+00     0.00000E+00          0.00000E+00
       7075     1.52925E+01     1.22462E+01     0.00000E+00     0.00000E+00          0.00000E+00
       7076     1.52968E+01     1.22479E+01     0.00000E+00     0.00000E+00          0.00000E+00
       7077     1.53012E+01     1.22496E+01     0.00000E+00     0.00000E+00          0.00000E+00
       7078     1.53055E+01     1.22513E+01     0.00000E+00     0.00000E+00          0.00000E+00
       7079     1.53098E+01     1.22531E+01     0.00000E+00     0.00000E+00          0.00000E+00
       7080     1.53141E+01     1.22548E+01     0.00000E+00     0.00000E+00          0.00000E+00
       7081     1.53185E+01     1.22565E+01     0.00000E+00     0.00000E+00          0.00000E+00
       7082     1.53228E+01     1.22583E+01     0.00000E+00     0.00000E+00          0.00000E+00
       7083     1.53271E+01     1.22600E+01     0.00000E+00     0.00000E+00          0.00000E+00
       7084     1.53314E+01     1.22617E+01     0.00000E+00     0.00000E+00          0.00000E+00
       7085     1.53358E+01     1.22635E+01     0.00000E+00     0.00000E+00          0.00000E+00
       7086     1.53401E+01     1.22652E+01     0.00000E+00     0.00000E+00          0.00000E+00
       7087     1.53444E+01     1.22669E+01     0.00000E+00     0.00000E+00          0.00000E+00
       7088     1.53488E+01     1.22687E+01     0.00000E+00     0.00000E+00          0.00000E+00
       7089     1.53531E+01     1.22704E+01     0.00000E+00     0.00000E+00          0.00000E+00
       7090     1.53574E+01     1.22721E+01     0.00000E+00     0.00000E+00          0.00000E+00
       7091     1.53618E+01     1.22738E+01     0.00000E+00     0.00000E+00          0.00000E+00
       7092     1.53661E+01     1.22756E+01     0.00000E+00     0.00000E+00          0.00000E+00
       7093     1.53704E+01     1.22773E+01     0.00000E+00     0.00000E+00          0.00000E+00
       7094     1.53748E+01     1.22790E+01     0.00000E+00     0.00000E+00          0.00000E+00
       7095     1.53791E+01     1.22808E+01     0.00000E+00     0.00000E+00          0.00000E+00
       7096     1.53834E+01     1.22825E+01     0.00000E+00     0.00000E+00          0.00000E+00
       7097     1.53878E+01     1.22842E+01     0.00000E+00     0.00000E+00          0.00000E+00
       7098     1.53921E+01     1.22860E+01     0.00000E+00     0.00000E+00          0.00000E+00
       7099     1.53964E+01     1.22877E+01     0.00000E+00     0.00000E+00          0.00000E+00
       7100     1.54008E+01     1.22894E+01     0.00000E+00     0.00000E+00          0.00000E+00
       7101     1.54051E+01     1.22912E+01     0.00000E+00     0.00000E+00          0.00000E+00
       7102     1.54095E+01     1.22929E+01     0.00000E+00     0.00000E+00          0.00000E+00
       7103     1.54138E+01     1.22946E+01     0.00000E+00     0.00000E+00          0.00000E+00
       7104     1.54181E+01     1.22964E+01     0.00000E+00     0.00000E+00          0.00000E+00
       7105     1.54225E+01     1.22981E+01     0.00000E+00     0.00000E+00          0.00000E+00
       7106     1.54268E+01     1.22998E+01     0.00000E+00     0.00000E+00          0.00000E+00
       7107     1.54312E+01     1.23015E+01     0.00000E+00     0.00000E+00          0.00000E+00
       7108     1.54355E+01     1.23033E+01     0.00000E+00     0.00000E+00          0.00000E+00
       7109     1.54398E+01     1.23050E+01     0.00000E+00     0.00000E+00          0.00000E+00
       7110     1.54442E+01     1.23067E+01     0.00000E+00     0.00000E+00          0.00000E+00
       7111     1.54485E+01     1.23085E+01     0.00000E+00     0.00000E+00          0.00000E+00
       7112     1.54529E+01     1.23102E+01     0.00000E+00     0.00000E+00          0.00000E+00
       7113     1.54572E+01     1.23119E+01     0.00000E+00     0.00000E+00          0.00000E+00
       7114     1.54616E+01     1.23137E+01     0.00000E+00     0.00000E+00          0.00000E+00
       7115     1.54659E+01     1.23154E+01     0.00000E+00     0.00000E+00          0.00000E+00
       7116     1.54703E+01     1.23171E+01     0.00000E+00     0.00000E+00          0.00000E+00
       7117     1.54746E+01     1.23189E+01     0.00000E+00     0.00000E+00          0.00000E+00
       7118     1.54790E+01     1.23206E+01     0.00000E+00     0.00000E+00          0.00000E+00
       7119     1.54833E+01     1.23223E+01     0.00000E+00     0.00000E+00          0.00000E+00
       7120     1.54877E+01     1.23240E+01     0.00000E+00     0.00000E+00          0.00000E+00
       7121     1.54920E+01     1.23258E+01     0.00000E+00     0.00000E+00          0.00000E+00
       7122     1.54964E+01     1.23275E+01     0.00000E+00     0.00000E+00          0.00000E+00
       7123     1.55007E+01     1.23292E+01     0.00000E+00     0.00000E+00          0.00000E+00
       7124     1.55051E+01     1.23310E+01     0.00000E+00     0.00000E+00          0.00000E+00
       7125     1.55094E+01     1.23327E+01     0.00000E+00     0.00000E+00          0.00000E+00
       7126     1.55138E+01     1.23344E+01     0.00000E+00     0.00000E+00          0.00000E+00
       7127     1.55181E+01     1.23362E+01     0.00000E+00     0.00000E+00          0.00000E+00
       7128     1.55225E+01     1.23379E+01     0.00000E+00     0.00000E+00          0.00000E+00
       7129     1.55268E+01     1.23396E+01     0.00000E+00     0.00000E+00          0.00000E+00
       7130     1.55312E+01     1.23414E+01     0.00000E+00     0.00000E+00          0.00000E+00
       7131     1.55356E+01     1.23431E+01     0.00000E+00     0.00000E+00          0.00000E+00
       7132     1.55399E+01     1.23448E+01     0.00000E+00     0.00000E+00          0.00000E+00
       7133     1.55443E+01     1.23465E+01     0.00000E+00     0.00000E+00          0.00000E+00
       7134     1.55486E+01     1.23483E+01     0.00000E+00     0.00000E+00          0.00000E+00
       7135     1.55530E+01     1.23500E+01     0.00000E+00     0.00000E+00          0.00000E+00
       7136     1.55573E+01     1.23517E+01     0.00000E+00     0.00000E+00          0.00000E+00
       7137     1.55617E+01     1.23535E+01     0.00000E+00     0.00000E+00          0.00000E+00
       7138     1.55661E+01     1.23552E+01     0.00000E+00     0.00000E+00          0.00000E+00
       7139     1.55704E+01     1.23569E+01     0.00000E+00     0.00000E+00          0.00000E+00
       7140     1.55748E+01     1.23587E+01     0.00000E+00     0.00000E+00          0.00000E+00
       7141     1.55792E+01     1.23604E+01     0.00000E+00     0.00000E+00          0.00000E+00
       7142     1.55835E+01     1.23621E+01     0.00000E+00     0.00000E+00          0.00000E+00
       7143     1.55879E+01     1.23639E+01     0.00000E+00     0.00000E+00          0.00000E+00
       7144     1.55922E+01     1.23656E+01     0.00000E+00     0.00000E+00          0.00000E+00
       7145     1.55966E+01     1.23673E+01     0.00000E+00     0.00000E+00          0.00000E+00
       7146     1.56010E+01     1.23690E+01     0.00000E+00     0.00000E+00          0.00000E+00
       7147     1.56053E+01     1.23708E+01     0.00000E+00     0.00000E+00          0.00000E+00
       7148     1.56097E+01     1.23725E+01     0.00000E+00     0.00000E+00          0.00000E+00
       7149     1.56141E+01     1.23742E+01     0.00000E+00     0.00000E+00          0.00000E+00
       7150     1.56184E+01     1.23760E+01     0.00000E+00     0.00000E+00          0.00000E+00
       7151     1.56228E+01     1.23777E+01     0.00000E+00     0.00000E+00          0.00000E+00
       7152     1.56272E+01     1.23794E+01     0.00000E+00     0.00000E+00          0.00000E+00
       7153     1.56316E+01     1.23812E+01     0.00000E+00     0.00000E+00          0.00000E+00
       7154     1.56359E+01     1.23829E+01     0.00000E+00     0.00000E+00          0.00000E+00
       7155     1.56403E+01     1.23846E+01     0.00000E+00     0.00000E+00          0.00000E+00
       7156     1.56447E+01     1.23864E+01     0.00000E+00     0.00000E+00          0.00000E+00
       7157     1.56490E+01     1.23881E+01     0.00000E+00     0.00000E+00          0.00000E+00
       7158     1.56534E+01     1.23898E+01     0.00000E+00     0.00000E+00          0.00000E+00
       7159     1.56578E+01     1.23916E+01     0.00000E+00     0.00000E+00          0.00000E+00
       7160     1.56622E+01     1.23933E+01     0.00000E+00     0.00000E+00          0.00000E+00
       7161     1.56665E+01     1.23950E+01     0.00000E+00     0.00000E+00          0.00000E+00
       7162     1.56709E+01     1.23967E+01     0.00000E+00     0.00000E+00          0.00000E+00
       7163     1.56753E+01     1.23985E+01     0.00000E+00     0.00000E+00          0.00000E+00
       7164     1.56797E+01     1.24002E+01     0.00000E+00     0.00000E+00          0.00000E+00
       7165     1.56841E+01     1.24019E+01     0.00000E+00     0.00000E+00          0.00000E+00
       7166     1.56884E+01     1.24037E+01     0.00000E+00     0.00000E+00          0.00000E+00
       7167     1.56928E+01     1.24054E+01     0.00000E+00     0.00000E+00          0.00000E+00
       7168     1.56972E+01     1.24071E+01     0.00000E+00     0.00000E+00          0.00000E+00
       7169     1.57016E+01     1.24089E+01     0.00000E+00     0.00000E+00          0.00000E+00
       7170     1.57059E+01     1.24106E+01     0.00000E+00     0.00000E+00          0.00000E+00
       7171     1.57103E+01     1.24123E+01     0.00000E+00     0.00000E+00          0.00000E+00
       7172     1.57147E+01     1.24141E+01     0.00000E+00     0.00000E+00          0.00000E+00
       7173     1.57191E+01     1.24158E+01     0.00000E+00     0.00000E+00          0.00000E+00
       7174     1.57235E+01     1.24175E+01     0.00000E+00     0.00000E+00          0.00000E+00
       7175     1.57279E+01     1.24192E+01     0.00000E+00     0.00000E+00          0.00000E+00
       7176     1.57322E+01     1.24210E+01     0.00000E+00     0.00000E+00          0.00000E+00
       7177     1.57366E+01     1.24227E+01     0.00000E+00     0.00000E+00          0.00000E+00
       7178     1.57410E+01     1.24244E+01     0.00000E+00     0.00000E+00          0.00000E+00
       7179     1.57454E+01     1.24262E+01     0.00000E+00     0.00000E+00          0.00000E+00
       7180     1.57498E+01     1.24279E+01     0.00000E+00     0.00000E+00          0.00000E+00
       7181     1.57542E+01     1.24296E+01     0.00000E+00     0.00000E+00          0.00000E+00
       7182     1.57586E+01     1.24314E+01     0.00000E+00     0.00000E+00          0.00000E+00
       7183     1.57630E+01     1.24331E+01     0.00000E+00     0.00000E+00          0.00000E+00
       7184     1.57673E+01     1.24348E+01     0.00000E+00     0.00000E+00          0.00000E+00
       7185     1.57717E+01     1.24366E+01     0.00000E+00     0.00000E+00          0.00000E+00
       7186     1.57761E+01     1.24383E+01     0.00000E+00     0.00000E+00          0.00000E+00
       7187     1.57805E+01     1.24400E+01     0.00000E+00     0.00000E+00          0.00000E+00
       7188     1.57849E+01     1.24417E+01     0.00000E+00     0.00000E+00          0.00000E+00
       7189     1.57893E+01     1.24435E+01     0.00000E+00     0.00000E+00          0.00000E+00
       7190     1.57937E+01     1.24452E+01     0.00000E+00     0.00000E+00          0.00000E+00
       7191     1.57981E+01     1.24469E+01     0.00000E+00     0.00000E+00          0.00000E+00
       7192     1.58025E+01     1.24487E+01     0.00000E+00     0.00000E+00          0.00000E+00
       7193     1.58069E+01     1.24504E+01     0.00000E+00     0.00000E+00          0.00000E+00
       7194     1.58113E+01     1.24521E+01     0.00000E+00     0.00000E+00          0.00000E+00
       7195     1.58157E+01     1.24539E+01     0.00000E+00     0.00000E+00          0.00000E+00
       7196     1.58201E+01     1.24556E+01     0.00000E+00     0.00000E+00          0.00000E+00
       7197     1.58245E+01     1.24573E+01     0.00000E+00     0.00000E+00          0.00000E+00
       7198     1.58289E+01     1.24591E+01     0.00000E+00     0.00000E+00          0.00000E+00
       7199     1.58333E+01     1.24608E+01     0.00000E+00     0.00000E+00          0.00000E+00
       7200     1.58377E+01     1.24625E+01     0.00000E+00     0.00000E+00          0.00000E+00
       7201     1.58421E+01     1.24642E+01     0.00000E+00     0.00000E+00          0.00000E+00
       7202     1.58465E+01     1.24660E+01     0.00000E+00     0.00000E+00          0.00000E+00
       7203     1.58509E+01     1.24677E+01     0.00000E+00     0.00000E+00          0.00000E+00
       7204     1.58553E+01     1.24694E+01     0.00000E+00     0.00000E+00          0.00000E+00
       7205     1.58597E+01     1.24712E+01     0.00000E+00     0.00000E+00          0.00000E+00
       7206     1.58641E+01     1.24729E+01     0.00000E+00     0.00000E+00          0.00000E+00
       7207     1.58685E+01     1.24746E+01     0.00000E+00     0.00000E+00          0.00000E+00
       7208     1.58729E+01     1.24764E+01     0.00000E+00     0.00000E+00          0.00000E+00
       7209     1.58773E+01     1.24781E+01     0.00000E+00     0.00000E+00          0.00000E+00
       7210     1.58817E+01     1.24798E+01     0.00000E+00     0.00000E+00          0.00000E+00
       7211     1.58861E+01     1.24816E+01     0.00000E+00     0.00000E+00          0.00000E+00
       7212     1.58905E+01     1.24833E+01     0.00000E+00     0.00000E+00          0.00000E+00
       7213     1.58949E+01     1.24850E+01     0.00000E+00     0.00000E+00          0.00000E+00
       7214     1.58993E+01     1.24867E+01     0.00000E+00     0.00000E+00          0.00000E+00
       7215     1.59037E+01     1.24885E+01     0.00000E+00     0.00000E+00          0.00000E+00
       7216     1.59081E+01     1.24902E+01     0.00000E+00     0.00000E+00          0.00000E+00
       7217     1.59125E+01     1.24919E+01     0.00000E+00     0.00000E+00          0.00000E+00
       7218     1.59169E+01     1.24937E+01     0.00000E+00     0.00000E+00          0.00000E+00
       7219     1.59214E+01     1.24954E+01     0.00000E+00     0.00000E+00          0.00000E+00
       7220     1.59258E+01     1.24971E+01     0.00000E+00     0.00000E+00          0.00000E+00
       7221     1.59302E+01     1.24989E+01     0.00000E+00     0.00000E+00          0.00000E+00
       7222     1.59346E+01     1.25006E+01     0.00000E+00     0.00000E+00          0.00000E+00
       7223     1.59390E+01     1.25023E+01     0.00000E+00     0.00000E+00          0.00000E+00
       7224     1.59434E+01     1.25041E+01     0.00000E+00     0.00000E+00          0.00000E+00
       7225     1.59478E+01     1.25058E+01     0.00000E+00     0.00000E+00          0.00000E+00
       7226     1.59522E+01     1.25075E+01     0.00000E+00     0.00000E+00          0.00000E+00
       7227     1.59567E+01     1.25093E+01     0.00000E+00     0.00000E+00          0.00000E+00
       7228     1.59611E+01     1.25110E+01     0.00000E+00     0.00000E+00          0.00000E+00
       7229     1.59655E+01     1.25127E+01     0.00000E+00     0.00000E+00          0.00000E+00
       7230     1.59699E+01     1.25144E+01     0.00000E+00     0.00000E+00          0.00000E+00
       7231     1.59743E+01     1.25162E+01     0.00000E+00     0.00000E+00          0.00000E+00
       7232     1.59787E+01     1.25179E+01     0.00000E+00     0.00000E+00          0.00000E+00
       7233     1.59832E+01     1.25196E+01     0.00000E+00     0.00000E+00          0.00000E+00
       7234     1.59876E+01     1.25214E+01     0.00000E+00     0.00000E+00          0.00000E+00
       7235     1.59920E+01     1.25231E+01     0.00000E+00     0.00000E+00          0.00000E+00
       7236     1.59964E+01     1.25248E+01     0.00000E+00     0.00000E+00          0.00000E+00
       7237     1.60008E+01     1.25266E+01     0.00000E+00     0.00000E+00          0.00000E+00
       7238     1.60053E+01     1.25283E+01     0.00000E+00     0.00000E+00          0.00000E+00
       7239     1.60097E+01     1.25300E+01     0.00000E+00     0.00000E+00          0.00000E+00
       7240     1.60141E+01     1.25318E+01     0.00000E+00     0.00000E+00          0.00000E+00
       7241     1.60185E+01     1.25335E+01     0.00000E+00     0.00000E+00          0.00000E+00
       7242     1.60230E+01     1.25352E+01     0.00000E+00     0.00000E+00          0.00000E+00
       7243     1.60274E+01     1.25369E+01     0.00000E+00     0.00000E+00          0.00000E+00
       7244     1.60318E+01     1.25387E+01     0.00000E+00     0.00000E+00          0.00000E+00
       7245     1.60362E+01     1.25404E+01     0.00000E+00     0.00000E+00          0.00000E+00
       7246     1.60407E+01     1.25421E+01     0.00000E+00     0.00000E+00          0.00000E+00
       7247     1.60451E+01     1.25439E+01     0.00000E+00     0.00000E+00          0.00000E+00
       7248     1.60495E+01     1.25456E+01     0.00000E+00     0.00000E+00          0.00000E+00
       7249     1.60540E+01     1.25473E+01     0.00000E+00     0.00000E+00          0.00000E+00
       7250     1.60584E+01     1.25491E+01     0.00000E+00     0.00000E+00          0.00000E+00
       7251     1.60628E+01     1.25508E+01     0.00000E+00     0.00000E+00          0.00000E+00
       7252     1.60672E+01     1.25525E+01     0.00000E+00     0.00000E+00          0.00000E+00
       7253     1.60717E+01     1.25543E+01     0.00000E+00     0.00000E+00          0.00000E+00
       7254     1.60761E+01     1.25560E+01     0.00000E+00     0.00000E+00          0.00000E+00
       7255     1.60805E+01     1.25577E+01     0.00000E+00     0.00000E+00          0.00000E+00
       7256     1.60850E+01     1.25594E+01     0.00000E+00     0.00000E+00          0.00000E+00
       7257     1.60894E+01     1.25612E+01     0.00000E+00     0.00000E+00          0.00000E+00
       7258     1.60938E+01     1.25629E+01     0.00000E+00     0.00000E+00          0.00000E+00
       7259     1.60983E+01     1.25646E+01     0.00000E+00     0.00000E+00          0.00000E+00
       7260     1.61027E+01     1.25664E+01     0.00000E+00     0.00000E+00          0.00000E+00

This summary file was closed on 03-Nov-2016 at 13:42:24.

