
This summary information was generated by ElastoDyn (v1.04.00a-bjj, 26-Jul-2016) on 03-Nov-2016 at 13:42:20.


Turbine features:

            Upwind, three-bladed rotor with rigid hub.
            The model has 22 of 24 DOFs active (enabled) at start-up.
 Enabled    Platform horizontal surge translation DOF 
 Enabled    Platform horizontal sway translation DOF 
 Enabled    Platform vertical heave translation DOF 
 Enabled    Platform roll tilt rotation DOF 
 Enabled    Platform pitch tilt rotation DOF 
 Enabled    Platform yaw rotation DOF 
 Enabled    1st tower fore-aft bending mode DOF 
 Enabled    1st tower side-to-side bending mode DOF 
 Enabled    2nd tower fore-aft bending mode DOF 
 Enabled    2nd tower side-to-side bending mode DOF 
 Enabled    Nacelle yaw DOF 
 Disabled   Rotor-furl DOF 
 Enabled    Variable speed generator DOF 
 Enabled    Drivetrain rotational-flexibility DOF 
 Disabled   Tail-furl DOF 
 Enabled    1st flapwise bending-mode DOF of blade 1 
 Enabled    1st edgewise bending-mode DOF of blade 1 
 Enabled    2nd flapwise bending-mode DOF of blade 1 
 Enabled    1st flapwise bending-mode DOF of blade 2 
 Enabled    1st edgewise bending-mode DOF of blade 2 
 Enabled    2nd flapwise bending-mode DOF of blade 2 
 Enabled    1st flapwise bending-mode DOF of blade 3 
 Enabled    1st edgewise bending-mode DOF of blade 3 
 Enabled    2nd flapwise bending-mode DOF of blade 3 


Time steps:

    Structural            (s)        0.00800000


Some calculated parameters:

    Hub-Height            (m)            90.000
    Flexible Tower Length (m)            77.600
    Flexible Blade Length (m)            61.500


Rotor mass properties:

    Rotor Mass            (kg)       109389.852
    Rotor Inertia         (kg-m^2) 38677056.000
                                        Blade 1      Blade 2      Blade 3
                                        -------      -------      -------
    Mass                  (kg)        17536.617    17536.617    17536.617
    Second Mass Moment    (kg-m^2) 11752357.000 11752357.000 11752357.000
    First Mass Moment     (kg-m)     362132.781   362132.781   362132.781
    Center of Mass        (m)            20.650       20.650       20.650


Additional mass properties:

    Tower-top Mass        (kg)       349389.844
    Tower Mass            (kg)       318103.812
    Platform Mass         (kg)            0.000
    Mass Incl. Platform   (kg)       667493.625


Interpolated tower properties:

Node  TwFract   HNodes  DHNodes  TMassDen    FAStiff    SSStiff
 (-)      (-)      (m)      (m)    (kg/m)     (Nm^2)     (Nm^2)
   1    0.025    1.940    3.880  6966.874  7.438E+11  7.438E+11
   2    0.075    5.820    3.880  5681.146  6.081E+11  6.081E+11
   3    0.125    9.700    3.880  4441.990  4.764E+11  4.764E+11
   4    0.175   13.580    3.880  4371.359  4.671E+11  4.671E+11
   5    0.225   17.460    3.880  4301.132  4.579E+11  4.579E+11
   6    0.275   21.340    3.880  4230.612  4.486E+11  4.486E+11
   7    0.325   25.220    3.880  4160.719  4.395E+11  4.395E+11
   8    0.375   29.100    3.880  4090.986  4.305E+11  4.305E+11
   9    0.425   32.980    3.880  4021.204  4.215E+11  4.215E+11
  10    0.475   36.860    3.880  3952.170  4.127E+11  4.127E+11
  11    0.525   40.740    3.880  3883.393  4.040E+11  4.040E+11
  12    0.575   44.620    3.880  3814.535  3.953E+11  3.953E+11
  13    0.625   48.500    3.880  3745.785  3.867E+11  3.867E+11
  14    0.675   52.380    3.880  3677.661  3.782E+11  3.782E+11
  15    0.725   56.260    3.880  3609.823  3.698E+11  3.698E+11
  16    0.775   60.140    3.880  3541.854  3.614E+11  3.614E+11
  17    0.825   64.020    3.880  3474.135  3.531E+11  3.531E+11
  18    0.875   67.900    3.880  3406.890  3.450E+11  3.450E+11
  19    0.925   71.780    3.880  3339.479  3.368E+11  3.368E+11
  20    0.975   75.660    3.880  3273.772  3.289E+11  3.289E+11


Interpolated blade 1 properties:

Node  BlFract   RNodes  DRNodes PitchAxis  StrcTwst  BMassDen    FlpStff    EdgStff
 (-)      (-)      (m)      (m)       (-)     (deg)    (kg/m)     (Nm^2)     (Nm^2)
   1    0.029    3.309    3.618     0.253    13.308   787.554  1.823E+10  1.952E+10
   2    0.088    6.926    3.618     0.294    13.308   464.487  7.021E+09  9.977E+09
   3    0.147   10.544    3.618     0.339    13.308   414.917  4.944E+09  6.990E+09
   4    0.206   14.162    3.618     0.375    12.545   412.664  3.178E+09  6.695E+09
   5    0.265   17.779    3.618     0.375    10.770   361.957  2.263E+09  4.796E+09
   6    0.324   21.397    3.618     0.375     9.757   346.452  1.862E+09  4.283E+09
   7    0.382   25.015    3.618     0.375     8.731   330.982  1.440E+09  3.835E+09
   8    0.441   28.632    3.618     0.375     7.647   304.395  9.968E+08  3.304E+09
   9    0.500   32.250    3.618     0.375     6.549   272.375  6.410E+08  2.685E+09
  10    0.559   35.868    3.618     0.375     5.498   250.787  4.010E+08  2.292E+09
  11    0.618   39.485    3.618     0.375     4.462   211.669  2.468E+08  1.610E+09
  12    0.676   43.103    3.618     0.375     3.482   177.049  1.409E+08  1.225E+09
  13    0.735   46.721    3.618     0.375     2.693   153.160  9.890E+07  9.067E+08
  14    0.794   50.338    3.618     0.375     1.993   128.005  7.145E+07  6.486E+08
  15    0.853   53.956    3.618     0.375     1.292   102.116  4.819E+07  4.472E+08
  16    0.912   57.574    3.618     0.375     0.598    77.547  3.095E+07  3.109E+08
  17    0.971   61.191    3.618     0.375     0.141    51.403  1.013E+07  1.019E+08


Interpolated blade 2 properties:

Node  BlFract   RNodes  DRNodes PitchAxis  StrcTwst  BMassDen    FlpStff    EdgStff
 (-)      (-)      (m)      (m)       (-)     (deg)    (kg/m)     (Nm^2)     (Nm^2)
   1    0.029    3.309    3.618     0.253    13.308   787.554  1.823E+10  1.952E+10
   2    0.088    6.926    3.618     0.294    13.308   464.487  7.021E+09  9.977E+09
   3    0.147   10.544    3.618     0.339    13.308   414.917  4.944E+09  6.990E+09
   4    0.206   14.162    3.618     0.375    12.545   412.664  3.178E+09  6.695E+09
   5    0.265   17.779    3.618     0.375    10.770   361.957  2.263E+09  4.796E+09
   6    0.324   21.397    3.618     0.375     9.757   346.452  1.862E+09  4.283E+09
   7    0.382   25.015    3.618     0.375     8.731   330.982  1.440E+09  3.835E+09
   8    0.441   28.632    3.618     0.375     7.647   304.395  9.968E+08  3.304E+09
   9    0.500   32.250    3.618     0.375     6.549   272.375  6.410E+08  2.685E+09
  10    0.559   35.868    3.618     0.375     5.498   250.787  4.010E+08  2.292E+09
  11    0.618   39.485    3.618     0.375     4.462   211.669  2.468E+08  1.610E+09
  12    0.676   43.103    3.618     0.375     3.482   177.049  1.409E+08  1.225E+09
  13    0.735   46.721    3.618     0.375     2.693   153.160  9.890E+07  9.067E+08
  14    0.794   50.338    3.618     0.375     1.993   128.005  7.145E+07  6.486E+08
  15    0.853   53.956    3.618     0.375     1.292   102.116  4.819E+07  4.472E+08
  16    0.912   57.574    3.618     0.375     0.598    77.547  3.095E+07  3.109E+08
  17    0.971   61.191    3.618     0.375     0.141    51.403  1.013E+07  1.019E+08


Interpolated blade 3 properties:

Node  BlFract   RNodes  DRNodes PitchAxis  StrcTwst  BMassDen    FlpStff    EdgStff
 (-)      (-)      (m)      (m)       (-)     (deg)    (kg/m)     (Nm^2)     (Nm^2)
   1    0.029    3.309    3.618     0.253    13.308   787.554  1.823E+10  1.952E+10
   2    0.088    6.926    3.618     0.294    13.308   464.487  7.021E+09  9.977E+09
   3    0.147   10.544    3.618     0.339    13.308   414.917  4.944E+09  6.990E+09
   4    0.206   14.162    3.618     0.375    12.545   412.664  3.178E+09  6.695E+09
   5    0.265   17.779    3.618     0.375    10.770   361.957  2.263E+09  4.796E+09
   6    0.324   21.397    3.618     0.375     9.757   346.452  1.862E+09  4.283E+09
   7    0.382   25.015    3.618     0.375     8.731   330.982  1.440E+09  3.835E+09
   8    0.441   28.632    3.618     0.375     7.647   304.395  9.968E+08  3.304E+09
   9    0.500   32.250    3.618     0.375     6.549   272.375  6.410E+08  2.685E+09
  10    0.559   35.868    3.618     0.375     5.498   250.787  4.010E+08  2.292E+09
  11    0.618   39.485    3.618     0.375     4.462   211.669  2.468E+08  1.610E+09
  12    0.676   43.103    3.618     0.375     3.482   177.049  1.409E+08  1.225E+09
  13    0.735   46.721    3.618     0.375     2.693   153.160  9.890E+07  9.067E+08
  14    0.794   50.338    3.618     0.375     1.993   128.005  7.145E+07  6.486E+08
  15    0.853   53.956    3.618     0.375     1.292   102.116  4.819E+07  4.472E+08
  16    0.912   57.574    3.618     0.375     0.598    77.547  3.095E+07  3.109E+08
  17    0.971   61.191    3.618     0.375     0.141    51.403  1.013E+07  1.019E+08


Requested Outputs:


  Col  Parameter  Units
  ---  ---------  -----
   0   Time       (s)       
   1   OoPDefl1   (m)       
   2   IPDefl1    (m)       
   3   TwstDefl1  (deg)     
   4   BldPitch1  (deg)     
   5   Azimuth    (deg)     
   6   RotSpeed   (rpm)     
   7   GenSpeed   (rpm)     
   8   TwHt1TPxi  (m)       
   9   TwHt1TPyi  (m)       
  10   TTDspTwst  (deg)     
  11   Spn2MLxb1  (kN·m)    
  12   Spn2MLyb1  (kN·m)    
  13   RootFxc1   (kN)      
  14   RootFyc1   (kN)      
  15   RootFzc1   (kN)      
  16   RootMxc1   (kN·m)    
  17   RootMyc1   (kN·m)    
  18   RootMzc1   (kN·m)    
  19   RotTorq    (kN·m)    
  20   LSSGagMya  (kN·m)    
  21   LSSGagMza  (kN·m)    
  22   YawBrFxp   (kN)      
  23   YawBrFyp   (kN)      
  24   YawBrFzp   (kN)      
  25   YawBrMxp   (kN·m)    
  26   YawBrMyp   (kN·m)    
  27   YawBrMzp   (kN·m)    
