
This summary file was generated by HydroDyn v2.05.01 on 03-Nov-2016 at 13:54:56.

WAMIT Model
-----------
  Displaced volume (m^3)                 :     6.000000E+03
  X-offset of the center of buoyancy (m) :     0.000000E+00
  Y-offset of the center of buoyancy (m) :     0.000000E+00


  Buoyancy loads from members modelled with WAMIT, summed about ( 0.0, 0.0, 0.0 )
                                BuoyFxi               BuoyFyi               BuoyFzi               BuoyMxi               BuoyMyi               BuoyMzi 
                                  (N)                   (N)                   (N)                  (N-m)                 (N-m)                 (N-m)  
  External:                 0.000000E+00          0.000000E+00          6.031090E+07          0.000000E+00          0.000000E+00          0.000000E+00



Volume Calculations(m^3)
------------------------
  Structure Volume     :    0.00000E+00
  Submerged Volume     :    0.00000E+00
  Marine Growth Volume :    0.00000E+00
  Ballasted Volume     :    0.00000E+00
              NOTE: Structure, Submerged and Marine Growth volumes are based on members not modelled with WAMIT
                      Ballasted volume is computed from all members which are marked as filled in the HydroDyn input file, regardless of PropPot flag



Buoyancy loads summed about ( 0.0, 0.0, 0.0 )
---------------------------------------------
                                BuoyFxi               BuoyFyi               BuoyFzi               BuoyMxi               BuoyMyi               BuoyMzi 
                                  (N)                   (N)                   (N)                  (N-m)                 (N-m)                 (N-m)  
 External:                  0.000000E+00          0.000000E+00          0.000000E+00          0.000000E+00          0.000000E+00          0.000000E+00
 Internal:                  0.000000E+00          0.000000E+00          0.000000E+00          0.000000E+00          0.000000E+00          0.000000E+00
 Total   :                  0.000000E+00          0.000000E+00          0.000000E+00          0.000000E+00          0.000000E+00          0.000000E+00
              NOTE: External buoyancy is based on members not modelled with WAMIT
                      Internal buoyancy is computed from all members which are marked as filled in the HydroDyn input file, regardless of PropPot flag
                    Total buoyancy does not include WAMIT-modelled buoyancy contribution



Weight loads about ( 0.0, 0.0, 0.0 )
------------------------------------
                                 MGFxi                 MGFyi                 MGFzi                 MGMxi                 MGMyi                 MGMzi  
                                  (N)                   (N)                   (N)                  (N-m)                 (N-m)                 (N-m)  
 Marine Growth:             0.000000E+00          0.000000E+00          0.000000E+00          0.000000E+00          0.000000E+00          0.000000E+00



Nodes


   i    JointIndx   JointOvrlp  InpMbrIndx     Nxi         Nyi         Nzi      InpMbrDist       R         dRdZ         t          tMG        MGDens      PropPot   FilledFlag   FillDens   FillFSLoc       Cd          Ca          Cp         AxCa        AxCp        JAxCd       JAxCa       JAxCp    NConn  Connection List
  (-)      (-)         (-)         (-)         (m)         (m)         (m)          (-)         (m)         (-)        (m)         (m)       (kg/m^3)      (-)         (-)       (kg/m^3)       (-)         (-)         (-)         (-)         (-)         (-)         (-)         (-)         (-)      (-)                  
     1           1           0           1      0.0000      0.0000     -4.0000      0.0000   2.257E+01   0.000E+00   1.000E-04   0.000E+00   0.000E+00           T           F   0.000E+00   0.000E+00   1.000E+00   0.000E+00   1.000E+00   1.000E+00   1.000E+00   0.000E+00   0.000E+00   1.000E+00      1     1
     2           2           0           1      0.0000      0.0000      0.0000      1.0000   2.257E+01   0.000E+00   1.000E-04   0.000E+00   0.000E+00           T           F   0.000E+00   0.000E+00   1.000E+00   0.000E+00   1.000E+00   1.000E+00   1.000E+00   0.000E+00   0.000E+00   1.000E+00      1     8
     3          -1           0           1      0.0000      0.0000     -3.5000      0.1250   2.257E+01   0.000E+00   1.000E-04   0.000E+00   0.000E+00           T           F   0.000E+00   0.000E+00   1.000E+00   0.000E+00   1.000E+00   1.000E+00   1.000E+00   0.000E+00   0.000E+00   0.000E+00      2     1     2
     4          -1           0           1      0.0000      0.0000     -3.0000      0.2500   2.257E+01   0.000E+00   1.000E-04   0.000E+00   0.000E+00           T           F   0.000E+00   0.000E+00   1.000E+00   0.000E+00   1.000E+00   1.000E+00   1.000E+00   0.000E+00   0.000E+00   0.000E+00      2     2     3
     5          -1           0           1      0.0000      0.0000     -2.5000      0.3750   2.257E+01   0.000E+00   1.000E-04   0.000E+00   0.000E+00           T           F   0.000E+00   0.000E+00   1.000E+00   0.000E+00   1.000E+00   1.000E+00   1.000E+00   0.000E+00   0.000E+00   0.000E+00      2     3     4
     6          -1           0           1      0.0000      0.0000     -2.0000      0.5000   2.257E+01   0.000E+00   1.000E-04   0.000E+00   0.000E+00           T           F   0.000E+00   0.000E+00   1.000E+00   0.000E+00   1.000E+00   1.000E+00   1.000E+00   0.000E+00   0.000E+00   0.000E+00      2     4     5
     7          -1           0           1      0.0000      0.0000     -1.5000      0.6250   2.257E+01   0.000E+00   1.000E-04   0.000E+00   0.000E+00           T           F   0.000E+00   0.000E+00   1.000E+00   0.000E+00   1.000E+00   1.000E+00   1.000E+00   0.000E+00   0.000E+00   0.000E+00      2     5     6
     8          -1           0           1      0.0000      0.0000     -1.0000      0.7500   2.257E+01   0.000E+00   1.000E-04   0.000E+00   0.000E+00           T           F   0.000E+00   0.000E+00   1.000E+00   0.000E+00   1.000E+00   1.000E+00   1.000E+00   0.000E+00   0.000E+00   0.000E+00      2     6     7
     9          -1           0           1      0.0000      0.0000     -0.5000      0.8750   2.257E+01   0.000E+00   1.000E-04   0.000E+00   0.000E+00           T           F   0.000E+00   0.000E+00   1.000E+00   0.000E+00   1.000E+00   1.000E+00   1.000E+00   0.000E+00   0.000E+00   0.000E+00      2     7     8



Elements


   i    node1  node2      Length       Volume       MGVolume          R1          tMG1           t1             R2          tMG2           t2          MGDens1       MGDens2        PropPot     FilledFlag   FillDensity    FillFSLoc     FillMass         Cd1            Ca1          Cp1          AxCa1         AxCp1        JAxCd1        JAxCa1        JAxCp1          Cd2           Ca2           Cp2          AxCa2         AxCp2        JAxCd2        JAxCa2        JAxCp2   
  (-)    (-)    (-)        (m)         (m^3)         (m^3)           (m)           (m)           (m)           (m)           (m)           (m)        (kg/m^3)      (kg/m^3)         (-)           (-)        (kg/m^3)         (-)          (kg)           (-)            (-)          (-)           (-)           (-)           (-)           (-)           (-)           (-)            (-)          (-)           (-)           (-)           (-)           (-)           (-)    
     1      1      3   5.00000E-01   0.00000E+00   0.00000E+00   2.25676E+01   0.00000E+00   1.00000E-04   2.25676E+01   0.00000E+00   1.00000E-04   0.00000E+00   0.00000E+00             T             F   0.00000E+00   0.00000E+00   0.00000E+00   1.00000E+00   0.00000E+00   1.00000E+00   1.00000E+00   1.00000E+00   0.00000E+00   0.00000E+00   1.00000E+00   1.00000E+00   0.00000E+00   1.00000E+00   1.00000E+00   1.00000E+00   0.00000E+00   0.00000E+00   0.00000E+00
     2      3      4   5.00000E-01   0.00000E+00   0.00000E+00   2.25676E+01   0.00000E+00   1.00000E-04   2.25676E+01   0.00000E+00   1.00000E-04   0.00000E+00   0.00000E+00             T             F   0.00000E+00   0.00000E+00   0.00000E+00   1.00000E+00   0.00000E+00   1.00000E+00   1.00000E+00   1.00000E+00   0.00000E+00   0.00000E+00   0.00000E+00   1.00000E+00   0.00000E+00   1.00000E+00   1.00000E+00   1.00000E+00   0.00000E+00   0.00000E+00   0.00000E+00
     3      4      5   5.00000E-01   0.00000E+00   0.00000E+00   2.25676E+01   0.00000E+00   1.00000E-04   2.25676E+01   0.00000E+00   1.00000E-04   0.00000E+00   0.00000E+00             T             F   0.00000E+00   0.00000E+00   0.00000E+00   1.00000E+00   0.00000E+00   1.00000E+00   1.00000E+00   1.00000E+00   0.00000E+00   0.00000E+00   0.00000E+00   1.00000E+00   0.00000E+00   1.00000E+00   1.00000E+00   1.00000E+00   0.00000E+00   0.00000E+00   0.00000E+00
     4      5      6   5.00000E-01   0.00000E+00   0.00000E+00   2.25676E+01   0.00000E+00   1.00000E-04   2.25676E+01   0.00000E+00   1.00000E-04   0.00000E+00   0.00000E+00             T             F   0.00000E+00   0.00000E+00   0.00000E+00   1.00000E+00   0.00000E+00   1.00000E+00   1.00000E+00   1.00000E+00   0.00000E+00   0.00000E+00   0.00000E+00   1.00000E+00   0.00000E+00   1.00000E+00   1.00000E+00   1.00000E+00   0.00000E+00   0.00000E+00   0.00000E+00
     5      6      7   5.00000E-01   0.00000E+00   0.00000E+00   2.25676E+01   0.00000E+00   1.00000E-04   2.25676E+01   0.00000E+00   1.00000E-04   0.00000E+00   0.00000E+00             T             F   0.00000E+00   0.00000E+00   0.00000E+00   1.00000E+00   0.00000E+00   1.00000E+00   1.00000E+00   1.00000E+00   0.00000E+00   0.00000E+00   0.00000E+00   1.00000E+00   0.00000E+00   1.00000E+00   1.00000E+00   1.00000E+00   0.00000E+00   0.00000E+00   0.00000E+00
     6      7      8   5.00000E-01   0.00000E+00   0.00000E+00   2.25676E+01   0.00000E+00   1.00000E-04   2.25676E+01   0.00000E+00   1.00000E-04   0.00000E+00   0.00000E+00             T             F   0.00000E+00   0.00000E+00   0.00000E+00   1.00000E+00   0.00000E+00   1.00000E+00   1.00000E+00   1.00000E+00   0.00000E+00   0.00000E+00   0.00000E+00   1.00000E+00   0.00000E+00   1.00000E+00   1.00000E+00   1.00000E+00   0.00000E+00   0.00000E+00   0.00000E+00
     7      8      9   5.00000E-01   0.00000E+00   0.00000E+00   2.25676E+01   0.00000E+00   1.00000E-04   2.25676E+01   0.00000E+00   1.00000E-04   0.00000E+00   0.00000E+00             T             F   0.00000E+00   0.00000E+00   0.00000E+00   1.00000E+00   0.00000E+00   1.00000E+00   1.00000E+00   1.00000E+00   0.00000E+00   0.00000E+00   0.00000E+00   1.00000E+00   0.00000E+00   1.00000E+00   1.00000E+00   1.00000E+00   0.00000E+00   0.00000E+00   0.00000E+00
     8      9      2   5.00000E-01   0.00000E+00   0.00000E+00   2.25676E+01   0.00000E+00   1.00000E-04   2.25676E+01   0.00000E+00   1.00000E-04   0.00000E+00   0.00000E+00             T             F   0.00000E+00   0.00000E+00   0.00000E+00   1.00000E+00   0.00000E+00   1.00000E+00   1.00000E+00   1.00000E+00   0.00000E+00   0.00000E+00   0.00000E+00   1.00000E+00   0.00000E+00   1.00000E+00   1.00000E+00   1.00000E+00   0.00000E+00   0.00000E+00   1.00000E+00



Requested Member Outputs


   Label         Xi          Yi          Zi      InpMbrIndx   StartXi     StartYi     StartZi      EndXi       EndYi       EndZi        Loc    
    (-)          (m)         (m)         (m)        (-)         (m)         (m)         (m)         (m)         (m)         (m)         (-)    



 Requested Joint Outputs


   Label         Xi          Yi          Zi      InpJointID
    (-)          (m)         (m)         (m)        (-)    



 Wave Kinematics


       m              k          Omega[m]       Direction    REAL(DFT{WaveElev})  IMAG(DFT{WaveElev})
      (-)           (1/m)        (rad/s)          (deg)             (m)                  (m)         
      -7259     1.60983E+01    -1.25646E+01     0.00000E+00    -1.54926E-01         -2.43261E-01
      -7258     1.60938E+01    -1.25629E+01     0.00000E+00    -2.31428E-01         -6.45541E-01
      -7257     1.60894E+01    -1.25612E+01     0.00000E+00     2.64872E-01          3.27411E-01
      -7256     1.60850E+01    -1.25594E+01     0.00000E+00     2.73472E-01         -9.30663E-02
      -7255     1.60805E+01    -1.25577E+01     0.00000E+00     3.43692E-01         -8.22679E-02
      -7254     1.60761E+01    -1.25560E+01     0.00000E+00     6.93027E-01          1.67246E-01
      -7253     1.60717E+01    -1.25543E+01     0.00000E+00    -4.09245E-01          4.53587E-01
      -7252     1.60672E+01    -1.25525E+01     0.00000E+00    -8.21303E-02         -2.00838E-01
      -7251     1.60628E+01    -1.25508E+01     0.00000E+00     4.09480E-01         -4.67247E-01
      -7250     1.60584E+01    -1.25491E+01     0.00000E+00    -6.36414E-02         -4.89529E-01
      -7249     1.60540E+01    -1.25473E+01     0.00000E+00     4.57458E-02          2.38517E-01
      -7248     1.60495E+01    -1.25456E+01     0.00000E+00    -6.21909E-01         -1.39208E-01
      -7247     1.60451E+01    -1.25439E+01     0.00000E+00     4.52110E-02          5.59854E-01
      -7246     1.60407E+01    -1.25421E+01     0.00000E+00     7.12053E-01         -5.13416E-01
      -7245     1.60362E+01    -1.25404E+01     0.00000E+00    -4.21986E-01         -1.98719E-01
      -7244     1.60318E+01    -1.25387E+01     0.00000E+00     4.67461E-01          8.41943E-02
      -7243     1.60274E+01    -1.25369E+01     0.00000E+00     1.67915E-01          2.43000E-01
      -7242     1.60230E+01    -1.25352E+01     0.00000E+00     1.61464E-01          2.12163E-01
      -7241     1.60185E+01    -1.25335E+01     0.00000E+00     5.59101E-01         -2.44376E-01
      -7240     1.60141E+01    -1.25318E+01     0.00000E+00    -8.69658E-01         -7.72627E-01
      -7239     1.60097E+01    -1.25300E+01     0.00000E+00    -4.03950E-01          5.61275E-02
      -7238     1.60053E+01    -1.25283E+01     0.00000E+00     9.54909E-01          4.99856E-01
      -7237     1.60008E+01    -1.25266E+01     0.00000E+00     7.15885E-02          3.25038E-01
      -7236     1.59964E+01    -1.25248E+01     0.00000E+00     3.45021E-01          6.52521E-03
      -7235     1.59920E+01    -1.25231E+01     0.00000E+00    -1.12513E-01         -3.17909E-02
      -7234     1.59876E+01    -1.25214E+01     0.00000E+00     5.31291E-01          6.46862E-02
      -7233     1.59832E+01    -1.25196E+01     0.00000E+00     4.36629E-01         -2.32049E-01
      -7232     1.59787E+01    -1.25179E+01     0.00000E+00    -6.91430E-02         -1.87091E-02
      -7231     1.59743E+01    -1.25162E+01     0.00000E+00     1.01977E+00         -1.64008E-01
      -7230     1.59699E+01    -1.25144E+01     0.00000E+00     1.04612E-01          1.00311E-01
      -7229     1.59655E+01    -1.25127E+01     0.00000E+00     4.17614E-01         -7.39050E-02
      -7228     1.59611E+01    -1.25110E+01     0.00000E+00     4.49834E-01          4.82292E-01
      -7227     1.59567E+01    -1.25093E+01     0.00000E+00    -1.29622E-01          4.15064E-01
      -7226     1.59522E+01    -1.25075E+01     0.00000E+00    -1.81796E-01          2.37911E-01
      -7225     1.59478E+01    -1.25058E+01     0.00000E+00    -2.26474E-01         -6.36578E-01
      -7224     1.59434E+01    -1.25041E+01     0.00000E+00    -2.95703E-01          4.65261E-02
      -7223     1.59390E+01    -1.25023E+01     0.00000E+00    -2.90670E-01          3.57116E-03
      -7222     1.59346E+01    -1.25006E+01     0.00000E+00     3.92722E-01          7.27379E-01
      -7221     1.59302E+01    -1.24989E+01     0.00000E+00    -5.56248E-01          1.89398E-01
      -7220     1.59258E+01    -1.24971E+01     0.00000E+00     3.20904E-02         -6.48348E-02
      -7219     1.59214E+01    -1.24954E+01     0.00000E+00    -5.97183E-01          1.36395E-01
      -7218     1.59169E+01    -1.24937E+01     0.00000E+00    -1.02487E+00         -2.53813E-01
      -7217     1.59125E+01    -1.24919E+01     0.00000E+00    -6.05597E-01         -3.60337E-01
      -7216     1.59081E+01    -1.24902E+01     0.00000E+00     4.63495E-02          7.19171E-02
      -7215     1.59037E+01    -1.24885E+01     0.00000E+00     4.19285E-01         -8.56163E-03
      -7214     1.58993E+01    -1.24867E+01     0.00000E+00     6.79357E-02         -5.00903E-01
      -7213     1.58949E+01    -1.24850E+01     0.00000E+00     4.68440E-01         -7.80383E-02
      -7212     1.58905E+01    -1.24833E+01     0.00000E+00    -1.91315E-01          3.88297E-01
      -7211     1.58861E+01    -1.24816E+01     0.00000E+00     3.42218E-01         -1.60547E-01
      -7210     1.58817E+01    -1.24798E+01     0.00000E+00    -5.51113E-01          1.01148E+00
      -7209     1.58773E+01    -1.24781E+01     0.00000E+00    -2.15138E-01          4.85161E-01
      -7208     1.58729E+01    -1.24764E+01     0.00000E+00    -8.88687E-03          2.18844E-01
      -7207     1.58685E+01    -1.24746E+01     0.00000E+00     8.80236E-01          1.61596E-01
      -7206     1.58641E+01    -1.24729E+01     0.00000E+00    -5.86427E-01         -1.76964E-01
      -7205     1.58597E+01    -1.24712E+01     0.00000E+00     5.55672E-01          1.33827E-01
      -7204     1.58553E+01    -1.24694E+01     0.00000E+00     1.10143E-01          1.78568E-01
      -7203     1.58509E+01    -1.24677E+01     0.00000E+00    -9.66175E-02         -7.05477E-02
      -7202     1.58465E+01    -1.24660E+01     0.00000E+00     1.29603E-02         -3.24612E-01
      -7201     1.58421E+01    -1.24642E+01     0.00000E+00    -3.12716E-01         -6.03673E-02
      -7200     1.58377E+01    -1.24625E+01     0.00000E+00     2.91571E-01         -2.18650E-01
      -7199     1.58333E+01    -1.24608E+01     0.00000E+00    -1.73510E-01         -4.01215E-01
      -7198     1.58289E+01    -1.24591E+01     0.00000E+00     3.12570E-01          5.00442E-01
      -7197     1.58245E+01    -1.24573E+01     0.00000E+00     9.28752E-01          4.73506E-02
      -7196     1.58201E+01    -1.24556E+01     0.00000E+00    -5.20633E-02         -7.21163E-01
      -7195     1.58157E+01    -1.24539E+01     0.00000E+00     2.67464E-01         -5.69287E-01
      -7194     1.58113E+01    -1.24521E+01     0.00000E+00     8.41593E-02         -5.35462E-01
      -7193     1.58069E+01    -1.24504E+01     0.00000E+00    -1.73475E-01          3.08061E-02
      -7192     1.58025E+01    -1.24487E+01     0.00000E+00     1.05250E-01         -5.56957E-02
      -7191     1.57981E+01    -1.24469E+01     0.00000E+00    -2.53457E-01         -4.56054E-01
      -7190     1.57937E+01    -1.24452E+01     0.00000E+00    -2.55509E-01          4.84435E-01
      -7189     1.57893E+01    -1.24435E+01     0.00000E+00    -1.05606E-01         -8.50736E-01
      -7188     1.57849E+01    -1.24417E+01     0.00000E+00     7.11149E-02         -1.89675E-02
      -7187     1.57805E+01    -1.24400E+01     0.00000E+00     3.88989E-01         -3.96165E-02
      -7186     1.57761E+01    -1.24383E+01     0.00000E+00     3.02242E-01         -8.31528E-01
      -7185     1.57717E+01    -1.24366E+01     0.00000E+00     5.50891E-01          1.07009E-01
      -7184     1.57673E+01    -1.24348E+01     0.00000E+00     2.13859E-02          5.15304E-01
      -7183     1.57630E+01    -1.24331E+01     0.00000E+00    -5.00037E-01         -7.08906E-02
      -7182     1.57586E+01    -1.24314E+01     0.00000E+00     2.96839E-02         -6.36500E-01
      -7181     1.57542E+01    -1.24296E+01     0.00000E+00    -1.80571E-01         -4.61011E-01
      -7180     1.57498E+01    -1.24279E+01     0.00000E+00    -3.86736E-01         -3.26624E-01
      -7179     1.57454E+01    -1.24262E+01     0.00000E+00     7.40890E-01         -4.30071E-01
      -7178     1.57410E+01    -1.24244E+01     0.00000E+00     4.06084E-01         -7.65918E-01
      -7177     1.57366E+01    -1.24227E+01     0.00000E+00     1.68437E-01          3.53351E-01
      -7176     1.57322E+01    -1.24210E+01     0.00000E+00     6.38732E-01          3.61850E-01
      -7175     1.57279E+01    -1.24192E+01     0.00000E+00    -1.09494E-01          5.36629E-01
      -7174     1.57235E+01    -1.24175E+01     0.00000E+00    -2.58717E-01          6.60363E-03
      -7173     1.57191E+01    -1.24158E+01     0.00000E+00    -7.52497E-01         -5.33168E-01
      -7172     1.57147E+01    -1.24141E+01     0.00000E+00     1.02925E-01          5.74590E-01
      -7171     1.57103E+01    -1.24123E+01     0.00000E+00    -2.56731E-01          4.85645E-01
      -7170     1.57059E+01    -1.24106E+01     0.00000E+00    -1.19725E-01          4.91919E-02
      -7169     1.57016E+01    -1.24089E+01     0.00000E+00    -6.59178E-01          8.43757E-02
      -7168     1.56972E+01    -1.24071E+01     0.00000E+00    -6.64400E-01          2.35224E-01
      -7167     1.56928E+01    -1.24054E+01     0.00000E+00     2.19596E-02          3.11763E-02
      -7166     1.56884E+01    -1.24037E+01     0.00000E+00     7.21688E-01          1.13614E+00
      -7165     1.56841E+01    -1.24019E+01     0.00000E+00    -7.63673E-01          1.59825E-01
      -7164     1.56797E+01    -1.24002E+01     0.00000E+00     9.31545E-02          5.76137E-01
      -7163     1.56753E+01    -1.23985E+01     0.00000E+00     2.99995E-01         -3.91005E-01
      -7162     1.56709E+01    -1.23967E+01     0.00000E+00     1.07338E-02         -6.63614E-01
      -7161     1.56665E+01    -1.23950E+01     0.00000E+00    -4.09705E-01         -2.53327E-01
      -7160     1.56622E+01    -1.23933E+01     0.00000E+00    -3.62208E-01         -3.75321E-01
      -7159     1.56578E+01    -1.23916E+01     0.00000E+00    -5.51228E-01          1.46620E-01
      -7158     1.56534E+01    -1.23898E+01     0.00000E+00     7.00008E-02          7.03983E-02
      -7157     1.56490E+01    -1.23881E+01     0.00000E+00    -3.86574E-02          5.51190E-01
      -7156     1.56447E+01    -1.23864E+01     0.00000E+00     2.99408E-01         -2.88550E-01
      -7155     1.56403E+01    -1.23846E+01     0.00000E+00     1.36565E-01          4.85301E-01
      -7154     1.56359E+01    -1.23829E+01     0.00000E+00     2.10933E-01         -8.25869E-01
      -7153     1.56316E+01    -1.23812E+01     0.00000E+00     8.39103E-01          3.67074E-01
      -7152     1.56272E+01    -1.23794E+01     0.00000E+00    -2.44812E-01          1.88471E-01
      -7151     1.56228E+01    -1.23777E+01     0.00000E+00    -2.92867E-01         -1.04521E-01
      -7150     1.56185E+01    -1.23760E+01     0.00000E+00    -4.70020E-02          3.95714E-01
      -7149     1.56141E+01    -1.23742E+01     0.00000E+00    -6.34424E-01         -4.59755E-01
      -7148     1.56097E+01    -1.23725E+01     0.00000E+00     5.10516E-02          3.62662E-01
      -7147     1.56053E+01    -1.23708E+01     0.00000E+00     5.74496E-01         -4.06660E-01
      -7146     1.56010E+01    -1.23690E+01     0.00000E+00    -2.40989E-01          2.86888E-01
      -7145     1.55966E+01    -1.23673E+01     0.00000E+00     5.01210E-01         -7.69004E-01
      -7144     1.55922E+01    -1.23656E+01     0.00000E+00    -5.95081E-01         -1.42453E-01
      -7143     1.55879E+01    -1.23639E+01     0.00000E+00    -4.91827E-01          5.05085E-01
      -7142     1.55835E+01    -1.23621E+01     0.00000E+00     2.70477E-01         -7.61939E-01
      -7141     1.55792E+01    -1.23604E+01     0.00000E+00     8.02883E-01         -7.75130E-02
      -7140     1.55748E+01    -1.23587E+01     0.00000E+00     3.10420E-01         -3.58182E-01
      -7139     1.55704E+01    -1.23569E+01     0.00000E+00     2.48409E-01         -1.54806E-01
      -7138     1.55661E+01    -1.23552E+01     0.00000E+00    -5.16838E-01         -4.66248E-01
      -7137     1.55617E+01    -1.23535E+01     0.00000E+00    -2.85816E-01         -4.12842E-01
      -7136     1.55573E+01    -1.23517E+01     0.00000E+00     4.98041E-01         -7.02805E-01
      -7135     1.55530E+01    -1.23500E+01     0.00000E+00     4.02357E-01          1.90997E-01
      -7134     1.55486E+01    -1.23483E+01     0.00000E+00    -3.77022E-01          1.25075E-01
      -7133     1.55443E+01    -1.23465E+01     0.00000E+00     1.08791E-01          9.30144E-02
      -7132     1.55399E+01    -1.23448E+01     0.00000E+00     8.03614E-01         -1.78608E-01
      -7131     1.55356E+01    -1.23431E+01     0.00000E+00    -2.17171E-01          1.28635E-01
      -7130     1.55312E+01    -1.23414E+01     0.00000E+00    -2.09289E-01          6.76103E-01
      -7129     1.55268E+01    -1.23396E+01     0.00000E+00    -6.31300E-01          4.27628E-01
      -7128     1.55225E+01    -1.23379E+01     0.00000E+00     2.29890E-01          4.59065E-01
      -7127     1.55181E+01    -1.23362E+01     0.00000E+00     6.49355E-01         -7.98875E-02
      -7126     1.55138E+01    -1.23344E+01     0.00000E+00    -3.18208E-01          2.30222E-02
      -7125     1.55094E+01    -1.23327E+01     0.00000E+00     1.54522E-01          1.37578E-02
      -7124     1.55051E+01    -1.23310E+01     0.00000E+00    -8.33433E-02          1.08770E-01
      -7123     1.55007E+01    -1.23292E+01     0.00000E+00    -4.47545E-02         -5.25542E-01
      -7122     1.54964E+01    -1.23275E+01     0.00000E+00     2.60534E-01          1.43093E-01
      -7121     1.54920E+01    -1.23258E+01     0.00000E+00    -2.75435E-01         -1.23671E-01
      -7120     1.54877E+01    -1.23240E+01     0.00000E+00     3.78849E-01         -3.21135E-02
      -7119     1.54833E+01    -1.23223E+01     0.00000E+00     9.55577E-03         -8.43770E-01
      -7118     1.54790E+01    -1.23206E+01     0.00000E+00    -4.03941E-01          6.66320E-01
      -7117     1.54746E+01    -1.23189E+01     0.00000E+00     5.15996E-01         -6.09491E-01
      -7116     1.54703E+01    -1.23171E+01     0.00000E+00    -6.21506E-01          3.76453E-02
      -7115     1.54659E+01    -1.23154E+01     0.00000E+00    -4.35900E-01          4.54222E-01
      -7114     1.54616E+01    -1.23137E+01     0.00000E+00     1.63648E-01         -2.94334E-01
      -7113     1.54572E+01    -1.23119E+01     0.00000E+00     1.43267E-01         -2.88976E-01
      -7112     1.54529E+01    -1.23102E+01     0.00000E+00     2.53983E-01          5.67737E-01
      -7111     1.54485E+01    -1.23085E+01     0.00000E+00    -4.71420E-01          7.42221E-05
      -7110     1.54442E+01    -1.23067E+01     0.00000E+00    -3.61959E-01          2.51342E-01
      -7109     1.54398E+01    -1.23050E+01     0.00000E+00    -4.48476E-02         -2.80864E-02
      -7108     1.54355E+01    -1.23033E+01     0.00000E+00     3.30316E-01          4.74252E-01
      -7107     1.54312E+01    -1.23015E+01     0.00000E+00    -1.47036E-01          7.85231E-03
      -7106     1.54268E+01    -1.22998E+01     0.00000E+00    -2.00469E-01         -2.94951E-01
      -7105     1.54225E+01    -1.22981E+01     0.00000E+00     5.62460E-02         -2.21255E-01
      -7104     1.54181E+01    -1.22964E+01     0.00000E+00    -1.05327E-01         -1.99942E-01
      -7103     1.54138E+01    -1.22946E+01     0.00000E+00     6.27398E-01         -1.58657E-01
      -7102     1.54095E+01    -1.22929E+01     0.00000E+00     2.84093E-01         -2.92392E-01
      -7101     1.54051E+01    -1.22912E+01     0.00000E+00    -1.75984E-01         -3.95975E-02
      -7100     1.54008E+01    -1.22894E+01     0.00000E+00    -3.76930E-01         -4.08381E-01
      -7099     1.53964E+01    -1.22877E+01     0.00000E+00     2.05464E-02          2.60504E-01
      -7098     1.53921E+01    -1.22860E+01     0.00000E+00     4.63843E-01         -2.70923E-01
      -7097     1.53878E+01    -1.22842E+01     0.00000E+00     8.32951E-02         -4.25044E-01
      -7096     1.53834E+01    -1.22825E+01     0.00000E+00     7.96180E-01         -5.49419E-01
      -7095     1.53791E+01    -1.22808E+01     0.00000E+00     1.37007E-01         -1.20232E-02
      -7094     1.53748E+01    -1.22790E+01     0.00000E+00     8.11254E-02         -6.22368E-02
      -7093     1.53704E+01    -1.22773E+01     0.00000E+00    -2.95683E-01          1.30290E-01
      -7092     1.53661E+01    -1.22756E+01     0.00000E+00    -6.86313E-02          2.31476E-01
      -7091     1.53618E+01    -1.22738E+01     0.00000E+00    -4.52583E-01          1.41078E-01
      -7090     1.53574E+01    -1.22721E+01     0.00000E+00     1.00209E-01         -3.90449E-02
      -7089     1.53531E+01    -1.22704E+01     0.00000E+00     2.55978E-01          4.24600E-01
      -7088     1.53488E+01    -1.22687E+01     0.00000E+00    -3.98021E-01          1.50848E-01
      -7087     1.53444E+01    -1.22669E+01     0.00000E+00     4.08563E-01         -1.16680E-01
      -7086     1.53401E+01    -1.22652E+01     0.00000E+00     1.89271E-01         -1.70142E-01
      -7085     1.53358E+01    -1.22635E+01     0.00000E+00     1.00601E+00         -4.09968E-01
      -7084     1.53314E+01    -1.22617E+01     0.00000E+00    -2.82753E-01          2.65623E-01
      -7083     1.53271E+01    -1.22600E+01     0.00000E+00    -3.56614E-01         -3.58629E-01
      -7082     1.53228E+01    -1.22583E+01     0.00000E+00     2.78788E-01         -2.47856E-01
      -7081     1.53185E+01    -1.22565E+01     0.00000E+00    -2.58744E-01         -4.78756E-01
      -7080     1.53141E+01    -1.22548E+01     0.00000E+00    -4.07021E-02         -2.13072E-01
      -7079     1.53098E+01    -1.22531E+01     0.00000E+00     4.72999E-02         -6.62656E-01
      -7078     1.53055E+01    -1.22513E+01     0.00000E+00    -1.09615E-01         -5.40333E-02
      -7077     1.53012E+01    -1.22496E+01     0.00000E+00    -5.60449E-01          5.00708E-01
      -7076     1.52968E+01    -1.22479E+01     0.00000E+00    -1.11411E+00          2.45159E-01
      -7075     1.52925E+01    -1.22462E+01     0.00000E+00     1.30921E-01          1.61074E-01
      -7074     1.52882E+01    -1.22444E+01     0.00000E+00    -5.90425E-01          2.41591E-01
      -7073     1.52839E+01    -1.22427E+01     0.00000E+00     1.83267E-01         -1.22103E-01
      -7072     1.52795E+01    -1.22410E+01     0.00000E+00     3.06909E-01          7.25632E-02
      -7071     1.52752E+01    -1.22392E+01     0.00000E+00    -1.09569E-01         -5.49632E-01
      -7070     1.52709E+01    -1.22375E+01     0.00000E+00     1.79878E-01         -3.78368E-01
      -7069     1.52666E+01    -1.22358E+01     0.00000E+00    -6.52254E-02         -1.99556E-01
      -7068     1.52623E+01    -1.22340E+01     0.00000E+00    -6.76214E-03         -3.02663E-01
      -7067     1.52579E+01    -1.22323E+01     0.00000E+00    -3.52174E-01          3.31769E-01
      -7066     1.52536E+01    -1.22306E+01     0.00000E+00    -1.76649E-01          3.00286E-02
      -7065     1.52493E+01    -1.22288E+01     0.00000E+00    -5.85993E-01         -2.20092E-01
      -7064     1.52450E+01    -1.22271E+01     0.00000E+00     1.23722E-01         -6.50061E-01
      -7063     1.52407E+01    -1.22254E+01     0.00000E+00     2.20131E-01         -1.77335E-01
      -7062     1.52364E+01    -1.22237E+01     0.00000E+00    -3.55236E-03         -5.35553E-01
      -7061     1.52320E+01    -1.22219E+01     0.00000E+00     1.29246E-01         -6.39885E-01
      -7060     1.52277E+01    -1.22202E+01     0.00000E+00    -6.31261E-01         -7.09473E-01
      -7059     1.52234E+01    -1.22185E+01     0.00000E+00     6.91760E-01         -7.91712E-01
      -7058     1.52191E+01    -1.22167E+01     0.00000E+00    -2.20274E-01          3.78033E-01
      -7057     1.52148E+01    -1.22150E+01     0.00000E+00    -6.72659E-01         -1.57531E-01
      -7056     1.52105E+01    -1.22133E+01     0.00000E+00     3.28760E-01         -9.54127E-02
      -7055     1.52062E+01    -1.22115E+01     0.00000E+00     2.92307E-01         -1.53065E-01
      -7054     1.52019E+01    -1.22098E+01     0.00000E+00    -5.03098E-02         -1.75777E-01
      -7053     1.51976E+01    -1.22081E+01     0.00000E+00    -1.72667E-01          3.97672E-01
      -7052     1.51932E+01    -1.22063E+01     0.00000E+00    -2.86517E-02          1.25499E+00
      -7051     1.51889E+01    -1.22046E+01     0.00000E+00     1.32641E-01         -3.86288E-01
      -7050     1.51846E+01    -1.22029E+01     0.00000E+00     9.66402E-02         -2.13301E-01
      -7049     1.51803E+01    -1.22011E+01     0.00000E+00     2.09878E-02          3.66397E-01
      -7048     1.51760E+01    -1.21994E+01     0.00000E+00    -3.48586E-01         -3.99941E-01
      -7047     1.51717E+01    -1.21977E+01     0.00000E+00     3.60884E-01         -1.48193E-02
      -7046     1.51674E+01    -1.21960E+01     0.00000E+00    -3.64927E-01         -4.84908E-01
      -7045     1.51631E+01    -1.21942E+01     0.00000E+00     1.70765E-01         -2.34053E-01
      -7044     1.51588E+01    -1.21925E+01     0.00000E+00    -3.64061E-01         -1.73173E-01
      -7043     1.51545E+01    -1.21908E+01     0.00000E+00    -9.98663E-02         -9.72601E-02
      -7042     1.51502E+01    -1.21890E+01     0.00000E+00    -1.50837E-01         -3.51500E-01
      -7041     1.51459E+01    -1.21873E+01     0.00000E+00     1.82579E-01          6.95780E-01
      -7040     1.51416E+01    -1.21856E+01     0.00000E+00     4.52487E-01          1.88000E-02
      -7039     1.51373E+01    -1.21838E+01     0.00000E+00     5.13322E-01          8.56527E-01
      -7038     1.51330E+01    -1.21821E+01     0.00000E+00     9.60101E-02         -4.96933E-01
      -7037     1.51287E+01    -1.21804E+01     0.00000E+00     4.73978E-02          6.16282E-02
      -7036     1.51244E+01    -1.21786E+01     0.00000E+00    -5.73528E-02         -2.69377E-01
      -7035     1.51201E+01    -1.21769E+01     0.00000E+00     1.00319E-01         -1.69871E-01
      -7034     1.51158E+01    -1.21752E+01     0.00000E+00    -1.07585E-01         -1.62330E-01
      -7033     1.51115E+01    -1.21735E+01     0.00000E+00     3.38051E-01         -5.17533E-01
      -7032     1.51072E+01    -1.21717E+01     0.00000E+00     9.83644E-01          2.29673E-01
      -7031     1.51029E+01    -1.21700E+01     0.00000E+00    -9.08270E-01          3.33271E-01
      -7030     1.50986E+01    -1.21683E+01     0.00000E+00     2.04691E-01         -6.51264E-02
      -7029     1.50943E+01    -1.21665E+01     0.00000E+00    -1.63087E-01         -3.09497E-01
      -7028     1.50900E+01    -1.21648E+01     0.00000E+00     2.29547E-01         -8.74256E-02
      -7027     1.50857E+01    -1.21631E+01     0.00000E+00     8.89037E-02         -9.41455E-03
      -7026     1.50814E+01    -1.21613E+01     0.00000E+00     1.15702E-01          2.64194E-01
      -7025     1.50771E+01    -1.21596E+01     0.00000E+00     1.84764E-01         -5.25714E-01
      -7024     1.50728E+01    -1.21579E+01     0.00000E+00     6.55384E-01          4.72825E-01
      -7023     1.50685E+01    -1.21561E+01     0.00000E+00     6.31668E-01         -3.61088E-01
      -7022     1.50642E+01    -1.21544E+01     0.00000E+00     2.79682E-01          9.42059E-01
      -7021     1.50600E+01    -1.21527E+01     0.00000E+00    -5.39942E-01          3.63245E-02
      -7020     1.50557E+01    -1.21510E+01     0.00000E+00    -4.67221E-01          8.65414E-01
      -7019     1.50514E+01    -1.21492E+01     0.00000E+00     6.05064E-01          1.94982E-01
      -7018     1.50471E+01    -1.21475E+01     0.00000E+00    -2.74454E-02          2.41328E-02
      -7017     1.50428E+01    -1.21458E+01     0.00000E+00     2.27901E-01          7.83734E-02
      -7016     1.50385E+01    -1.21440E+01     0.00000E+00     1.98007E-01          1.74383E-01
      -7015     1.50342E+01    -1.21423E+01     0.00000E+00    -8.89936E-01          6.86935E-01
      -7014     1.50299E+01    -1.21406E+01     0.00000E+00    -2.95221E-01          1.13280E+00
      -7013     1.50257E+01    -1.21388E+01     0.00000E+00     2.85454E-01          4.07113E-01
      -7012     1.50214E+01    -1.21371E+01     0.00000E+00     2.72802E-01         -5.45965E-01
      -7011     1.50171E+01    -1.21354E+01     0.00000E+00     4.05194E-01         -1.59530E-02
      -7010     1.50128E+01    -1.21336E+01     0.00000E+00     2.21263E-01          3.68467E-01
      -7009     1.50085E+01    -1.21319E+01     0.00000E+00     2.85710E-01          7.58298E-02
      -7008     1.50042E+01    -1.21302E+01     0.00000E+00    -3.54930E-02          4.36005E-01
      -7007     1.50000E+01    -1.21285E+01     0.00000E+00     5.36885E-01          4.52823E-01
      -7006     1.49957E+01    -1.21267E+01     0.00000E+00     3.47130E-01         -5.76689E-01
      -7005     1.49914E+01    -1.21250E+01     0.00000E+00     2.05457E-01         -3.10198E-01
      -7004     1.49871E+01    -1.21233E+01     0.00000E+00    -4.04913E-01         -2.89186E-02
      -7003     1.49828E+01    -1.21215E+01     0.00000E+00     1.85092E-01         -3.90002E-01
      -7002     1.49786E+01    -1.21198E+01     0.00000E+00    -4.66587E-01         -4.45529E-01
      -7001     1.49743E+01    -1.21181E+01     0.00000E+00     3.86560E-01         -3.35841E-01
      -7000     1.49700E+01    -1.21163E+01     0.00000E+00    -9.47293E-01          3.28047E-02
      -6999     1.49657E+01    -1.21146E+01     0.00000E+00     6.44645E-01          7.00355E-02
      -6998     1.49615E+01    -1.21129E+01     0.00000E+00    -1.06118E+00          3.02452E-01
      -6997     1.49572E+01    -1.21111E+01     0.00000E+00    -1.12461E-01         -6.52816E-02
      -6996     1.49529E+01    -1.21094E+01     0.00000E+00    -4.66120E-01         -4.12455E-01
      -6995     1.49486E+01    -1.21077E+01     0.00000E+00    -1.94079E-01         -7.38022E-01
      -6994     1.49444E+01    -1.21060E+01     0.00000E+00     5.86301E-01          3.17072E-01
      -6993     1.49401E+01    -1.21042E+01     0.00000E+00     4.80820E-01          1.08177E-02
      -6992     1.49358E+01    -1.21025E+01     0.00000E+00    -6.13393E-03          9.32418E-02
      -6991     1.49315E+01    -1.21008E+01     0.00000E+00     1.86229E-01          4.90452E-01
      -6990     1.49273E+01    -1.20990E+01     0.00000E+00     9.37552E-02         -3.25880E-01
      -6989     1.49230E+01    -1.20973E+01     0.00000E+00     1.22198E+00         -3.95840E-01
      -6988     1.49187E+01    -1.20956E+01     0.00000E+00    -8.98756E-02          4.71491E-01
      -6987     1.49145E+01    -1.20938E+01     0.00000E+00    -2.53801E-03         -1.56108E-01
      -6986     1.49102E+01    -1.20921E+01     0.00000E+00    -4.57355E-01         -5.68789E-01
      -6985     1.49059E+01    -1.20904E+01     0.00000E+00     5.91034E-01         -1.09556E-01
      -6984     1.49016E+01    -1.20886E+01     0.00000E+00     3.99267E-01          4.38729E-02
      -6983     1.48974E+01    -1.20869E+01     0.00000E+00    -5.73947E-01         -1.05505E+00
      -6982     1.48931E+01    -1.20852E+01     0.00000E+00    -3.98308E-01         -3.04090E-01
      -6981     1.48888E+01    -1.20834E+01     0.00000E+00    -5.63592E-02         -5.50734E-01
      -6980     1.48846E+01    -1.20817E+01     0.00000E+00     5.54613E-02         -5.48130E-01
      -6979     1.48803E+01    -1.20800E+01     0.00000E+00     1.08979E-01          8.91305E-02
      -6978     1.48761E+01    -1.20783E+01     0.00000E+00    -3.84114E-01          7.04953E-02
      -6977     1.48718E+01    -1.20765E+01     0.00000E+00     2.16326E-01         -4.58684E-01
      -6976     1.48675E+01    -1.20748E+01     0.00000E+00    -2.26043E-01          2.38712E-01
      -6975     1.48633E+01    -1.20731E+01     0.00000E+00     3.33898E-01          4.73396E-01
      -6974     1.48590E+01    -1.20713E+01     0.00000E+00    -3.30945E-01          2.04510E-01
      -6973     1.48547E+01    -1.20696E+01     0.00000E+00    -4.21801E-01          8.70504E-01
      -6972     1.48505E+01    -1.20679E+01     0.00000E+00    -1.32137E-01         -3.45083E-01
      -6971     1.48462E+01    -1.20661E+01     0.00000E+00    -3.05397E-01          1.44554E-01
      -6970     1.48420E+01    -1.20644E+01     0.00000E+00     5.74332E-01         -3.61531E-01
      -6969     1.48377E+01    -1.20627E+01     0.00000E+00     4.35728E-01          2.64396E-01
      -6968     1.48334E+01    -1.20609E+01     0.00000E+00     4.17819E-01         -6.36745E-02
      -6967     1.48292E+01    -1.20592E+01     0.00000E+00    -5.02984E-01          3.51177E-02
      -6966     1.48249E+01    -1.20575E+01     0.00000E+00    -5.21704E-01          2.55821E-01
      -6965     1.48207E+01    -1.20558E+01     0.00000E+00    -3.56319E-01         -1.13811E+00
      -6964     1.48164E+01    -1.20540E+01     0.00000E+00     6.86493E-02         -7.80387E-01
      -6963     1.48122E+01    -1.20523E+01     0.00000E+00     4.00268E-01          5.62772E-01
      -6962     1.48079E+01    -1.20506E+01     0.00000E+00     4.21324E-01          4.52725E-03
      -6961     1.48037E+01    -1.20488E+01     0.00000E+00     9.91136E-01          8.55721E-02
      -6960     1.47994E+01    -1.20471E+01     0.00000E+00    -1.86733E-01          5.30541E-02
      -6959     1.47952E+01    -1.20454E+01     0.00000E+00    -5.07225E-02          6.67550E-02
      -6958     1.47909E+01    -1.20436E+01     0.00000E+00    -4.24744E-01          9.38538E-02
      -6957     1.47867E+01    -1.20419E+01     0.00000E+00    -9.85696E-02          5.70417E-01
      -6956     1.47824E+01    -1.20402E+01     0.00000E+00     7.69975E-04         -5.77749E-01
      -6955     1.47782E+01    -1.20384E+01     0.00000E+00    -8.98259E-02          7.75228E-01
      -6954     1.47739E+01    -1.20367E+01     0.00000E+00    -3.73104E-01         -3.46729E-01
      -6953     1.47697E+01    -1.20350E+01     0.00000E+00     6.81476E-01          1.63454E-01
      -6952     1.47654E+01    -1.20333E+01     0.00000E+00     4.82778E-01         -2.80663E-01
      -6951     1.47612E+01    -1.20315E+01     0.00000E+00     3.22991E-01          4.95797E-01
      -6950     1.47569E+01    -1.20298E+01     0.00000E+00     1.06439E+00         -1.25196E-01
      -6949     1.47527E+01    -1.20281E+01     0.00000E+00     1.85298E-02          1.56470E-01
      -6948     1.47484E+01    -1.20263E+01     0.00000E+00    -5.00845E-01          1.92882E-01
      -6947     1.47442E+01    -1.20246E+01     0.00000E+00     1.62393E-01         -5.10854E-01
      -6946     1.47399E+01    -1.20229E+01     0.00000E+00     2.98854E-01          3.35001E-01
      -6945     1.47357E+01    -1.20211E+01     0.00000E+00     6.66418E-01         -4.54194E-01
      -6944     1.47314E+01    -1.20194E+01     0.00000E+00    -1.55937E-01          3.15394E-01
      -6943     1.47272E+01    -1.20177E+01     0.00000E+00     5.22328E-01         -4.37415E-01
      -6942     1.47230E+01    -1.20159E+01     0.00000E+00    -2.18103E-01         -1.75067E-01
      -6941     1.47187E+01    -1.20142E+01     0.00000E+00    -4.29541E-02         -6.35473E-01
      -6940     1.47145E+01    -1.20125E+01     0.00000E+00    -3.17224E-01         -1.59453E-01
      -6939     1.47102E+01    -1.20108E+01     0.00000E+00    -1.24953E-01          4.27468E-02
      -6938     1.47060E+01    -1.20090E+01     0.00000E+00    -3.72881E-01          5.21668E-01
      -6937     1.47018E+01    -1.20073E+01     0.00000E+00    -7.41555E-01          2.05421E-01
      -6936     1.46975E+01    -1.20056E+01     0.00000E+00    -5.26301E-02         -5.85112E-01
      -6935     1.46933E+01    -1.20038E+01     0.00000E+00    -5.34292E-01         -4.37067E-01
      -6934     1.46890E+01    -1.20021E+01     0.00000E+00    -8.72035E-02         -3.05954E-01
      -6933     1.46848E+01    -1.20004E+01     0.00000E+00    -1.30317E-01          6.06954E-02
      -6932     1.46806E+01    -1.19986E+01     0.00000E+00    -2.81808E-01          3.35055E-02
      -6931     1.46763E+01    -1.19969E+01     0.00000E+00    -7.98422E-01          2.03782E-01
      -6930     1.46721E+01    -1.19952E+01     0.00000E+00    -7.62987E-01          1.78124E-01
      -6929     1.46679E+01    -1.19934E+01     0.00000E+00    -3.89836E-01          3.85181E-01
      -6928     1.46636E+01    -1.19917E+01     0.00000E+00    -4.21646E-01         -1.40297E-01
      -6927     1.46594E+01    -1.19900E+01     0.00000E+00     3.56751E-01          1.36238E-01
      -6926     1.46552E+01    -1.19882E+01     0.00000E+00     1.43283E+00          5.32920E-01
      -6925     1.46509E+01    -1.19865E+01     0.00000E+00     1.10791E-01          1.20307E-01
      -6924     1.46467E+01    -1.19848E+01     0.00000E+00    -2.55426E-01         -3.14128E-01
      -6923     1.46425E+01    -1.19831E+01     0.00000E+00     2.44792E-01          1.14191E-01
      -6922     1.46382E+01    -1.19813E+01     0.00000E+00     1.02159E-01         -3.03169E-01
      -6921     1.46340E+01    -1.19796E+01     0.00000E+00    -1.35250E-01          1.49349E-01
      -6920     1.46298E+01    -1.19779E+01     0.00000E+00     6.01506E-01         -1.87644E-02
      -6919     1.46256E+01    -1.19761E+01     0.00000E+00    -1.19673E-01         -5.16822E-01
      -6918     1.46213E+01    -1.19744E+01     0.00000E+00     2.05139E-01         -2.21232E-01
      -6917     1.46171E+01    -1.19727E+01     0.00000E+00     9.47707E-02         -5.76052E-01
      -6916     1.46129E+01    -1.19709E+01     0.00000E+00     3.06059E-01         -2.39547E-01
      -6915     1.46087E+01    -1.19692E+01     0.00000E+00     4.24820E-01          3.88041E-01
      -6914     1.46044E+01    -1.19675E+01     0.00000E+00     2.25122E-01          4.75739E-01
      -6913     1.46002E+01    -1.19657E+01     0.00000E+00    -2.82175E-01          2.13755E-01
      -6912     1.45960E+01    -1.19640E+01     0.00000E+00    -1.49769E-01         -8.46845E-02
      -6911     1.45918E+01    -1.19623E+01     0.00000E+00    -2.55219E-01          2.29389E-01
      -6910     1.45875E+01    -1.19606E+01     0.00000E+00    -3.61204E-01         -1.04641E-02
      -6909     1.45833E+01    -1.19588E+01     0.00000E+00    -4.97460E-01          2.35678E-01
      -6908     1.45791E+01    -1.19571E+01     0.00000E+00     4.72009E-01         -2.46149E-02
      -6907     1.45749E+01    -1.19554E+01     0.00000E+00     2.04354E-01          3.32049E-01
      -6906     1.45707E+01    -1.19536E+01     0.00000E+00    -1.54022E-01          3.72807E-01
      -6905     1.45664E+01    -1.19519E+01     0.00000E+00    -2.65007E-01          4.32869E-01
      -6904     1.45622E+01    -1.19502E+01     0.00000E+00    -1.48092E-02          2.37556E-01
      -6903     1.45580E+01    -1.19484E+01     0.00000E+00    -4.52069E-01          8.89896E-01
      -6902     1.45538E+01    -1.19467E+01     0.00000E+00    -9.25284E-02         -7.07406E-02
      -6901     1.45496E+01    -1.19450E+01     0.00000E+00     6.64713E-02          3.92449E-01
      -6900     1.45453E+01    -1.19432E+01     0.00000E+00    -6.74078E-02          4.73949E-01
      -6899     1.45411E+01    -1.19415E+01     0.00000E+00    -1.17416E-02          1.94378E-01
      -6898     1.45369E+01    -1.19398E+01     0.00000E+00     4.24892E-01         -1.77519E-01
      -6897     1.45327E+01    -1.19381E+01     0.00000E+00    -5.82526E-01         -6.72316E-02
      -6896     1.45285E+01    -1.19363E+01     0.00000E+00    -5.80057E-01          2.45663E-01
      -6895     1.45243E+01    -1.19346E+01     0.00000E+00    -3.04207E-01          8.22820E-02
      -6894     1.45201E+01    -1.19329E+01     0.00000E+00    -3.92185E-01          3.82892E-01
      -6893     1.45158E+01    -1.19311E+01     0.00000E+00    -1.89594E-01         -3.68103E-01
      -6892     1.45116E+01    -1.19294E+01     0.00000E+00    -1.08830E-01          8.14653E-01
      -6891     1.45074E+01    -1.19277E+01     0.00000E+00     1.48094E-01         -6.12023E-01
      -6890     1.45032E+01    -1.19259E+01     0.00000E+00    -8.68763E-02          3.85437E-01
      -6889     1.44990E+01    -1.19242E+01     0.00000E+00    -1.98315E-01         -1.93389E-01
      -6888     1.44948E+01    -1.19225E+01     0.00000E+00     7.27827E-02          3.58552E-01
      -6887     1.44906E+01    -1.19207E+01     0.00000E+00     5.87486E-01         -6.17932E-02
      -6886     1.44864E+01    -1.19190E+01     0.00000E+00     3.55305E-01         -3.74451E-02
      -6885     1.44822E+01    -1.19173E+01     0.00000E+00    -3.89968E-02         -1.56143E-01
      -6884     1.44780E+01    -1.19156E+01     0.00000E+00     5.18420E-01         -4.80043E-01
      -6883     1.44738E+01    -1.19138E+01     0.00000E+00    -4.95996E-01         -6.82434E-01
      -6882     1.44696E+01    -1.19121E+01     0.00000E+00    -4.22692E-01         -2.96831E-01
      -6881     1.44654E+01    -1.19104E+01     0.00000E+00     3.68311E-01          3.16116E-01
      -6880     1.44611E+01    -1.19086E+01     0.00000E+00    -1.40299E-01          1.27633E-01
      -6879     1.44569E+01    -1.19069E+01     0.00000E+00     3.02490E-01         -6.44048E-02
      -6878     1.44527E+01    -1.19052E+01     0.00000E+00     6.95987E-01          2.55342E-01
      -6877     1.44485E+01    -1.19034E+01     0.00000E+00     2.58284E-01         -3.14691E-01
      -6876     1.44443E+01    -1.19017E+01     0.00000E+00    -6.08045E-01          2.43206E-01
      -6875     1.44401E+01    -1.19000E+01     0.00000E+00     3.54967E-01          2.06867E-01
      -6874     1.44359E+01    -1.18982E+01     0.00000E+00     2.27401E-02         -2.94261E-01
      -6873     1.44317E+01    -1.18965E+01     0.00000E+00     2.55714E-02         -3.63490E-01
      -6872     1.44275E+01    -1.18948E+01     0.00000E+00    -2.68507E-01          7.22870E-01
      -6871     1.44233E+01    -1.18930E+01     0.00000E+00     4.25807E-01          4.33586E-01
      -6870     1.44191E+01    -1.18913E+01     0.00000E+00    -3.12877E-01          1.36413E-01
      -6869     1.44149E+01    -1.18896E+01     0.00000E+00     1.11626E-01         -6.54750E-01
      -6868     1.44107E+01    -1.18879E+01     0.00000E+00    -1.14037E-01          2.55925E-01
      -6867     1.44065E+01    -1.18861E+01     0.00000E+00     1.11324E-01         -9.24866E-01
      -6866     1.44024E+01    -1.18844E+01     0.00000E+00     3.94552E-04          5.34855E-01
      -6865     1.43982E+01    -1.18827E+01     0.00000E+00    -1.88760E-01          6.68202E-01
      -6864     1.43940E+01    -1.18809E+01     0.00000E+00    -1.42561E-01         -5.85460E-01
      -6863     1.43898E+01    -1.18792E+01     0.00000E+00     4.97421E-01          4.62978E-01
      -6862     1.43856E+01    -1.18775E+01     0.00000E+00     4.98349E-01         -5.01823E-01
      -6861     1.43814E+01    -1.18757E+01     0.00000E+00    -2.49633E-01          3.71660E-01
      -6860     1.43772E+01    -1.18740E+01     0.00000E+00     8.61599E-01         -1.25868E-01
      -6859     1.43730E+01    -1.18723E+01     0.00000E+00     1.38855E-01         -2.73157E-01
      -6858     1.43688E+01    -1.18705E+01     0.00000E+00     6.53135E-01         -1.51624E-02
      -6857     1.43646E+01    -1.18688E+01     0.00000E+00    -7.26759E-01         -6.07661E-01
      -6856     1.43604E+01    -1.18671E+01     0.00000E+00    -4.42368E-02          8.35800E-02
      -6855     1.43562E+01    -1.18654E+01     0.00000E+00    -8.57603E-01         -5.04434E-01
      -6854     1.43521E+01    -1.18636E+01     0.00000E+00    -5.30439E-02          3.82731E-01
      -6853     1.43479E+01    -1.18619E+01     0.00000E+00    -2.72728E-01         -2.04195E-01
      -6852     1.43437E+01    -1.18602E+01     0.00000E+00    -2.77481E-01          9.26855E-02
      -6851     1.43395E+01    -1.18584E+01     0.00000E+00    -5.32969E-01         -1.25409E-01
      -6850     1.43353E+01    -1.18567E+01     0.00000E+00     5.61813E-01         -3.77573E-01
      -6849     1.43311E+01    -1.18550E+01     0.00000E+00     9.98241E-02          5.67240E-01
      -6848     1.43269E+01    -1.18532E+01     0.00000E+00     2.74907E-01          5.52097E-03
      -6847     1.43228E+01    -1.18515E+01     0.00000E+00    -8.22354E-01          6.63072E-01
      -6846     1.43186E+01    -1.18498E+01     0.00000E+00     7.42647E-01          1.20951E+00
      -6845     1.43144E+01    -1.18480E+01     0.00000E+00    -7.28731E-01         -1.80726E-01
      -6844     1.43102E+01    -1.18463E+01     0.00000E+00     2.64119E-01          5.60290E-02
      -6843     1.43060E+01    -1.18446E+01     0.00000E+00    -5.39436E-01         -4.34633E-01
      -6842     1.43018E+01    -1.18429E+01     0.00000E+00    -6.46945E-01          6.93777E-01
      -6841     1.42977E+01    -1.18411E+01     0.00000E+00     8.69831E-01          3.54840E-01
      -6840     1.42935E+01    -1.18394E+01     0.00000E+00     4.97029E-01         -3.07205E-01
      -6839     1.42893E+01    -1.18377E+01     0.00000E+00    -4.67248E-01          1.85727E-01
      -6838     1.42851E+01    -1.18359E+01     0.00000E+00    -1.75456E-01          8.37624E-01
      -6837     1.42809E+01    -1.18342E+01     0.00000E+00    -9.87722E-01          7.22492E-01
      -6836     1.42768E+01    -1.18325E+01     0.00000E+00     1.07601E-02         -3.66267E-01
      -6835     1.42726E+01    -1.18307E+01     0.00000E+00     5.65104E-01          8.39689E-01
      -6834     1.42684E+01    -1.18290E+01     0.00000E+00     1.07046E-01         -4.93411E-01
      -6833     1.42642E+01    -1.18273E+01     0.00000E+00    -3.71739E-01          4.38948E-02
      -6832     1.42601E+01    -1.18255E+01     0.00000E+00     2.37637E-01         -3.08081E-01
      -6831     1.42559E+01    -1.18238E+01     0.00000E+00    -2.82296E-01         -6.17219E-01
      -6830     1.42517E+01    -1.18221E+01     0.00000E+00    -2.72673E-01         -9.90266E-01
      -6829     1.42475E+01    -1.18204E+01     0.00000E+00     9.97512E-02         -4.95568E-01
      -6828     1.42434E+01    -1.18186E+01     0.00000E+00     7.19240E-01          8.78799E-02
      -6827     1.42392E+01    -1.18169E+01     0.00000E+00     2.86484E-02          2.64102E-01
      -6826     1.42350E+01    -1.18152E+01     0.00000E+00     4.96185E-01         -1.12563E-01
      -6825     1.42309E+01    -1.18134E+01     0.00000E+00     5.60672E-01          1.05776E-01
      -6824     1.42267E+01    -1.18117E+01     0.00000E+00     5.31019E-02          6.12223E-01
      -6823     1.42225E+01    -1.18100E+01     0.00000E+00     1.19239E-01          4.32891E-02
      -6822     1.42184E+01    -1.18082E+01     0.00000E+00    -3.35022E-01          4.82611E-01
      -6821     1.42142E+01    -1.18065E+01     0.00000E+00     7.73800E-01         -1.03245E-01
      -6820     1.42100E+01    -1.18048E+01     0.00000E+00    -9.66347E-01         -3.55003E-01
      -6819     1.42059E+01    -1.18030E+01     0.00000E+00    -5.26167E-01          2.51849E-01
      -6818     1.42017E+01    -1.18013E+01     0.00000E+00    -5.90394E-01         -4.93225E-01
      -6817     1.41975E+01    -1.17996E+01     0.00000E+00    -3.74895E-01          5.99709E-01
      -6816     1.41934E+01    -1.17978E+01     0.00000E+00    -6.53478E-01          5.08447E-01
      -6815     1.41892E+01    -1.17961E+01     0.00000E+00    -2.42274E-01          3.58835E-01
      -6814     1.41850E+01    -1.17944E+01     0.00000E+00    -5.21556E-02          6.11997E-02
      -6813     1.41809E+01    -1.17927E+01     0.00000E+00    -3.14602E-01         -3.38487E-02
      -6812     1.41767E+01    -1.17909E+01     0.00000E+00    -1.09239E-01         -5.65530E-02
      -6811     1.41725E+01    -1.17892E+01     0.00000E+00     5.96736E-01          3.55525E-01
      -6810     1.41684E+01    -1.17875E+01     0.00000E+00    -2.10052E-01          1.50411E-01
      -6809     1.41642E+01    -1.17857E+01     0.00000E+00    -1.01896E+00          3.26002E-01
      -6808     1.41601E+01    -1.17840E+01     0.00000E+00    -3.50518E-02          2.06761E-01
      -6807     1.41559E+01    -1.17823E+01     0.00000E+00    -2.95553E-01         -7.43726E-02
      -6806     1.41517E+01    -1.17805E+01     0.00000E+00     4.48528E-02         -2.12488E-01
      -6805     1.41476E+01    -1.17788E+01     0.00000E+00    -3.99223E-01         -3.40631E-01
      -6804     1.41434E+01    -1.17771E+01     0.00000E+00    -1.23849E-01          1.17916E-01
      -6803     1.41393E+01    -1.17753E+01     0.00000E+00    -1.23051E-01          1.75489E-01
      -6802     1.41351E+01    -1.17736E+01     0.00000E+00     8.17038E-02         -1.34750E-01
      -6801     1.41310E+01    -1.17719E+01     0.00000E+00     1.59332E-01          7.07419E-01
      -6800     1.41268E+01    -1.17702E+01     0.00000E+00    -3.38752E-02         -2.86388E-01
      -6799     1.41226E+01    -1.17684E+01     0.00000E+00    -3.49299E-02         -2.47363E-01
      -6798     1.41185E+01    -1.17667E+01     0.00000E+00    -8.74438E-01         -2.47283E-01
      -6797     1.41143E+01    -1.17650E+01     0.00000E+00    -2.43312E-01          5.75929E-01
      -6796     1.41102E+01    -1.17632E+01     0.00000E+00    -4.18491E-01          4.18417E-01
      -6795     1.41060E+01    -1.17615E+01     0.00000E+00     3.32095E-01          3.57172E-02
      -6794     1.41019E+01    -1.17598E+01     0.00000E+00    -3.90310E-01          2.65400E-02
      -6793     1.40977E+01    -1.17580E+01     0.00000E+00     2.30069E-01          5.28847E-01
      -6792     1.40936E+01    -1.17563E+01     0.00000E+00     2.68049E-01         -2.82598E-01
      -6791     1.40894E+01    -1.17546E+01     0.00000E+00     5.51828E-01          2.22045E-02
      -6790     1.40853E+01    -1.17528E+01     0.00000E+00     6.85386E-01         -2.99852E-01
      -6789     1.40811E+01    -1.17511E+01     0.00000E+00     6.33262E-01         -4.76152E-01
      -6788     1.40770E+01    -1.17494E+01     0.00000E+00    -2.15738E-02         -1.90067E-01
      -6787     1.40728E+01    -1.17477E+01     0.00000E+00    -2.06681E-02         -1.74936E-02
      -6786     1.40687E+01    -1.17459E+01     0.00000E+00    -1.08252E+00          1.30433E-01
      -6785     1.40645E+01    -1.17442E+01     0.00000E+00    -8.88199E-02         -8.04011E-01
      -6784     1.40604E+01    -1.17425E+01     0.00000E+00    -7.30331E-01         -1.68237E-01
      -6783     1.40562E+01    -1.17407E+01     0.00000E+00    -6.47764E-01         -1.07968E-01
      -6782     1.40521E+01    -1.17390E+01     0.00000E+00    -1.41615E-01         -7.72883E-01
      -6781     1.40480E+01    -1.17373E+01     0.00000E+00     1.48761E-02          2.56503E-01
      -6780     1.40438E+01    -1.17355E+01     0.00000E+00     9.85007E-01         -4.31746E-01
      -6779     1.40397E+01    -1.17338E+01     0.00000E+00    -1.04040E-01          1.85318E-01
      -6778     1.40355E+01    -1.17321E+01     0.00000E+00    -5.85061E-01         -4.67320E-01
      -6777     1.40314E+01    -1.17303E+01     0.00000E+00    -6.02501E-02         -5.19789E-01
      -6776     1.40273E+01    -1.17286E+01     0.00000E+00    -2.43359E-01         -3.64006E-01
      -6775     1.40231E+01    -1.17269E+01     0.00000E+00    -1.35855E-02          6.02434E-01
      -6774     1.40190E+01    -1.17252E+01     0.00000E+00    -1.55708E-01         -8.95922E-02
      -6773     1.40148E+01    -1.17234E+01     0.00000E+00    -5.59226E-01         -1.01582E+00
      -6772     1.40107E+01    -1.17217E+01     0.00000E+00    -3.11797E-02         -1.33629E-01
      -6771     1.40066E+01    -1.17200E+01     0.00000E+00    -8.27630E-01         -7.10121E-01
      -6770     1.40024E+01    -1.17182E+01     0.00000E+00    -1.49005E-03         -6.26713E-01
      -6769     1.39983E+01    -1.17165E+01     0.00000E+00     1.95729E-02         -6.34295E-02
      -6768     1.39942E+01    -1.17148E+01     0.00000E+00     6.52614E-01         -1.67744E-01
      -6767     1.39900E+01    -1.17130E+01     0.00000E+00    -3.85289E-01          2.44767E-01
      -6766     1.39859E+01    -1.17113E+01     0.00000E+00    -2.90820E-01         -6.52054E-02
      -6765     1.39817E+01    -1.17096E+01     0.00000E+00     3.47927E-01          1.83387E-01
      -6764     1.39776E+01    -1.17078E+01     0.00000E+00     3.03445E-01          1.86221E-01
      -6763     1.39735E+01    -1.17061E+01     0.00000E+00     5.70530E-01         -2.79743E-01
      -6762     1.39694E+01    -1.17044E+01     0.00000E+00     1.84838E-01         -2.08054E-01
      -6761     1.39652E+01    -1.17027E+01     0.00000E+00     4.56701E-01         -5.38975E-01
      -6760     1.39611E+01    -1.17009E+01     0.00000E+00    -2.69931E-01         -3.10435E-01
      -6759     1.39570E+01    -1.16992E+01     0.00000E+00     7.27387E-01         -3.53721E-01
      -6758     1.39528E+01    -1.16975E+01     0.00000E+00    -8.21372E-02         -2.93808E-01
      -6757     1.39487E+01    -1.16957E+01     0.00000E+00     3.88525E-01         -3.85292E-01
      -6756     1.39446E+01    -1.16940E+01     0.00000E+00    -1.03963E+00          7.35832E-01
      -6755     1.39404E+01    -1.16923E+01     0.00000E+00    -8.09149E-01         -4.05179E-01
      -6754     1.39363E+01    -1.16905E+01     0.00000E+00     3.01787E-01         -3.63528E-01
      -6753     1.39322E+01    -1.16888E+01     0.00000E+00     7.57846E-01         -6.19293E-01
      -6752     1.39281E+01    -1.16871E+01     0.00000E+00     3.95491E-01          4.74969E-01
      -6751     1.39239E+01    -1.16853E+01     0.00000E+00    -4.12791E-02         -1.85681E-01
      -6750     1.39198E+01    -1.16836E+01     0.00000E+00    -7.53402E-01          4.14843E-01
      -6749     1.39157E+01    -1.16819E+01     0.00000E+00     3.36371E-01         -4.98337E-02
      -6748     1.39116E+01    -1.16801E+01     0.00000E+00    -2.54713E-01          1.03457E-02
      -6747     1.39074E+01    -1.16784E+01     0.00000E+00     2.29126E-01          1.60402E-01
      -6746     1.39033E+01    -1.16767E+01     0.00000E+00    -6.11064E-01          7.97151E-01
      -6745     1.38992E+01    -1.16750E+01     0.00000E+00    -3.98992E-01          3.38784E-02
      -6744     1.38951E+01    -1.16732E+01     0.00000E+00     8.76461E-02          6.36101E-01
      -6743     1.38910E+01    -1.16715E+01     0.00000E+00    -8.86062E-02         -1.53303E-01
      -6742     1.38868E+01    -1.16698E+01     0.00000E+00     4.73682E-03         -3.73476E-01
      -6741     1.38827E+01    -1.16680E+01     0.00000E+00     2.93236E-01         -1.52162E-01
      -6740     1.38786E+01    -1.16663E+01     0.00000E+00     7.28684E-01          4.85641E-01
      -6739     1.38745E+01    -1.16646E+01     0.00000E+00     1.27781E-01         -3.22294E-01
      -6738     1.38704E+01    -1.16628E+01     0.00000E+00     5.31746E-01         -4.08827E-01
      -6737     1.38662E+01    -1.16611E+01     0.00000E+00    -1.40007E-01          4.47550E-01
      -6736     1.38621E+01    -1.16594E+01     0.00000E+00     9.41244E-03          5.12452E-01
      -6735     1.38580E+01    -1.16576E+01     0.00000E+00    -3.56310E-01          7.19256E-02
      -6734     1.38539E+01    -1.16559E+01     0.00000E+00     5.77089E-02         -1.93768E-02
      -6733     1.38498E+01    -1.16542E+01     0.00000E+00    -5.07644E-01          1.01219E-01
      -6732     1.38457E+01    -1.16525E+01     0.00000E+00    -1.80941E-01          6.29483E-01
      -6731     1.38416E+01    -1.16507E+01     0.00000E+00     1.51638E-01          4.80526E-01
      -6730     1.38374E+01    -1.16490E+01     0.00000E+00    -5.98969E-02          2.42301E-01
      -6729     1.38333E+01    -1.16473E+01     0.00000E+00     2.83966E-01          1.58842E-01
      -6728     1.38292E+01    -1.16455E+01     0.00000E+00    -2.86818E-01         -1.37125E-01
      -6727     1.38251E+01    -1.16438E+01     0.00000E+00    -3.98961E-01          6.73486E-01
      -6726     1.38210E+01    -1.16421E+01     0.00000E+00     9.11312E-01         -3.06450E-01
      -6725     1.38169E+01    -1.16403E+01     0.00000E+00     2.99919E-01          2.85215E-01
      -6724     1.38128E+01    -1.16386E+01     0.00000E+00     2.92591E-01          1.58172E-01
      -6723     1.38087E+01    -1.16369E+01     0.00000E+00    -5.75846E-02          5.27152E-01
      -6722     1.38046E+01    -1.16351E+01     0.00000E+00     3.82822E-01          6.22157E-01
      -6721     1.38005E+01    -1.16334E+01     0.00000E+00     1.16367E-01          4.59502E-01
      -6720     1.37964E+01    -1.16317E+01     0.00000E+00    -4.20294E-01          4.49469E-01
      -6719     1.37922E+01    -1.16300E+01     0.00000E+00     1.51064E-01         -8.87512E-02
      -6718     1.37881E+01    -1.16282E+01     0.00000E+00     2.00530E-01         -3.08777E-01
      -6717     1.37840E+01    -1.16265E+01     0.00000E+00    -4.65459E-01         -4.00483E-01
      -6716     1.37799E+01    -1.16248E+01     0.00000E+00     5.90462E-02         -9.98746E-01
      -6715     1.37758E+01    -1.16230E+01     0.00000E+00     1.78097E-01         -2.74930E-01
      -6714     1.37717E+01    -1.16213E+01     0.00000E+00     3.12356E-01         -3.96050E-01
      -6713     1.37676E+01    -1.16196E+01     0.00000E+00     3.46367E-01         -4.92645E-01
      -6712     1.37635E+01    -1.16178E+01     0.00000E+00    -9.11052E-01          2.19424E-01
      -6711     1.37594E+01    -1.16161E+01     0.00000E+00    -8.62593E-01         -6.02238E-02
      -6710     1.37553E+01    -1.16144E+01     0.00000E+00    -3.56180E-01          4.21542E-01
      -6709     1.37512E+01    -1.16126E+01     0.00000E+00     1.85264E-02          2.20069E-01
      -6708     1.37471E+01    -1.16109E+01     0.00000E+00    -5.41982E-01         -1.57375E-01
      -6707     1.37430E+01    -1.16092E+01     0.00000E+00    -4.96673E-01          1.54605E-01
      -6706     1.37389E+01    -1.16074E+01     0.00000E+00    -4.82779E-01         -1.02850E-01
      -6705     1.37348E+01    -1.16057E+01     0.00000E+00    -1.20998E-01         -4.26484E-01
      -6704     1.37307E+01    -1.16040E+01     0.00000E+00    -4.44963E-01          1.30601E-01
      -6703     1.37266E+01    -1.16023E+01     0.00000E+00    -2.91152E-01         -3.06438E-01
      -6702     1.37225E+01    -1.16005E+01     0.00000E+00    -5.16580E-01         -9.52956E-02
      -6701     1.37185E+01    -1.15988E+01     0.00000E+00     2.15293E-01         -2.32832E-01
      -6700     1.37144E+01    -1.15971E+01     0.00000E+00    -7.65060E-01          3.58635E-01
      -6699     1.37103E+01    -1.15953E+01     0.00000E+00     2.58460E-01         -9.36053E-01
      -6698     1.37062E+01    -1.15936E+01     0.00000E+00    -5.73804E-01          1.71099E-01
      -6697     1.37021E+01    -1.15919E+01     0.00000E+00    -5.93721E-01          8.72950E-01
      -6696     1.36980E+01    -1.15901E+01     0.00000E+00    -1.39651E-01          6.32238E-02
      -6695     1.36939E+01    -1.15884E+01     0.00000E+00    -5.23351E-01         -8.23366E-02
      -6694     1.36898E+01    -1.15867E+01     0.00000E+00    -4.77828E-01          9.00130E-02
      -6693     1.36857E+01    -1.15849E+01     0.00000E+00    -3.36604E-01          4.28630E-01
      -6692     1.36816E+01    -1.15832E+01     0.00000E+00     3.18872E-01          1.61044E-01
      -6691     1.36775E+01    -1.15815E+01     0.00000E+00     3.84783E-01          9.25271E-02
      -6690     1.36735E+01    -1.15798E+01     0.00000E+00     1.98929E-01          8.43999E-01
      -6689     1.36694E+01    -1.15780E+01     0.00000E+00     1.16358E+00          2.06510E-01
      -6688     1.36653E+01    -1.15763E+01     0.00000E+00     3.58781E-02         -1.07964E-01
      -6687     1.36612E+01    -1.15746E+01     0.00000E+00    -3.67998E-01         -1.47771E-01
      -6686     1.36571E+01    -1.15728E+01     0.00000E+00     2.10050E-01         -3.71251E-01
      -6685     1.36530E+01    -1.15711E+01     0.00000E+00     9.81686E-02          3.70503E-01
      -6684     1.36489E+01    -1.15694E+01     0.00000E+00    -1.38532E-01          6.90051E-01
      -6683     1.36449E+01    -1.15676E+01     0.00000E+00    -5.40719E-01          9.37112E-02
      -6682     1.36408E+01    -1.15659E+01     0.00000E+00     1.29628E-01          2.88150E-01
      -6681     1.36367E+01    -1.15642E+01     0.00000E+00    -3.03826E-01          9.30583E-01
      -6680     1.36326E+01    -1.15624E+01     0.00000E+00    -8.87043E-01         -7.67046E-02
      -6679     1.36285E+01    -1.15607E+01     0.00000E+00     5.52662E-01          2.16123E-01
      -6678     1.36244E+01    -1.15590E+01     0.00000E+00     3.96935E-01          3.66965E-01
      -6677     1.36204E+01    -1.15573E+01     0.00000E+00     7.37680E-01         -3.67196E-01
      -6676     1.36163E+01    -1.15555E+01     0.00000E+00     7.25995E-01         -1.69903E-01
      -6675     1.36122E+01    -1.15538E+01     0.00000E+00     6.65661E-03          1.21834E+00
      -6674     1.36081E+01    -1.15521E+01     0.00000E+00    -5.19222E-01          1.63635E-01
      -6673     1.36040E+01    -1.15503E+01     0.00000E+00    -2.57038E-01          7.98429E-01
      -6672     1.36000E+01    -1.15486E+01     0.00000E+00     1.62791E-01          3.22302E-01
      -6671     1.35959E+01    -1.15469E+01     0.00000E+00    -7.47667E-01         -2.27769E-01
      -6670     1.35918E+01    -1.15451E+01     0.00000E+00     1.84738E-01          1.90226E-01
      -6669     1.35877E+01    -1.15434E+01     0.00000E+00     2.65337E-01         -1.46911E-01
      -6668     1.35837E+01    -1.15417E+01     0.00000E+00    -4.25158E-01         -4.09700E-01
      -6667     1.35796E+01    -1.15399E+01     0.00000E+00     2.07928E-01         -7.06734E-01
      -6666     1.35755E+01    -1.15382E+01     0.00000E+00     5.43254E-02         -6.21828E-01
      -6665     1.35714E+01    -1.15365E+01     0.00000E+00     3.90202E-01          1.08845E-01
      -6664     1.35674E+01    -1.15348E+01     0.00000E+00     3.01848E-01          3.88099E-01
      -6663     1.35633E+01    -1.15330E+01     0.00000E+00    -7.62875E-01         -1.01861E+00
      -6662     1.35592E+01    -1.15313E+01     0.00000E+00    -2.35321E-01          4.68308E-01
      -6661     1.35552E+01    -1.15296E+01     0.00000E+00     5.95007E-01         -5.25149E-01
      -6660     1.35511E+01    -1.15278E+01     0.00000E+00    -9.89105E-02         -3.51591E-01
      -6659     1.35470E+01    -1.15261E+01     0.00000E+00     1.32896E+00         -4.05143E-01
      -6658     1.35430E+01    -1.15244E+01     0.00000E+00    -4.87091E-01          1.20152E-01
      -6657     1.35389E+01    -1.15226E+01     0.00000E+00    -1.87864E-01         -7.01690E-01
      -6656     1.35348E+01    -1.15209E+01     0.00000E+00    -6.35847E-01          5.43906E-03
      -6655     1.35308E+01    -1.15192E+01     0.00000E+00     1.16807E-01          2.00825E-01
      -6654     1.35267E+01    -1.15174E+01     0.00000E+00     3.27585E-01         -5.80215E-01
      -6653     1.35226E+01    -1.15157E+01     0.00000E+00     6.60785E-01         -8.71158E-02
      -6652     1.35186E+01    -1.15140E+01     0.00000E+00    -1.34532E-01          8.84763E-02
      -6651     1.35145E+01    -1.15122E+01     0.00000E+00    -4.74872E-01         -6.29384E-01
      -6650     1.35104E+01    -1.15105E+01     0.00000E+00    -3.00329E-01         -4.34986E-01
      -6649     1.35064E+01    -1.15088E+01     0.00000E+00     6.10482E-02          2.74739E-01
      -6648     1.35023E+01    -1.15071E+01     0.00000E+00     5.33684E-01         -2.62975E-01
      -6647     1.34982E+01    -1.15053E+01     0.00000E+00     3.52176E-02         -2.34311E-01
      -6646     1.34942E+01    -1.15036E+01     0.00000E+00    -2.58056E-01         -7.66084E-01
      -6645     1.34901E+01    -1.15019E+01     0.00000E+00     1.06312E-01         -2.82557E-02
      -6644     1.34861E+01    -1.15001E+01     0.00000E+00    -1.76316E-02          3.58103E-01
      -6643     1.34820E+01    -1.14984E+01     0.00000E+00     1.78228E-01          2.63259E-01
      -6642     1.34779E+01    -1.14967E+01     0.00000E+00    -1.08184E+00         -7.00784E-01
      -6641     1.34739E+01    -1.14949E+01     0.00000E+00    -4.23168E-01          2.82616E-01
      -6640     1.34698E+01    -1.14932E+01     0.00000E+00    -3.14628E-01          2.36207E-01
      -6639     1.34658E+01    -1.14915E+01     0.00000E+00     1.02953E-01          4.48576E-01
      -6638     1.34617E+01    -1.14897E+01     0.00000E+00     1.55050E-01         -4.52704E-01
      -6637     1.34577E+01    -1.14880E+01     0.00000E+00     3.05725E-01          4.03893E-01
      -6636     1.34536E+01    -1.14863E+01     0.00000E+00    -2.52914E-01         -2.93709E-01
      -6635     1.34495E+01    -1.14846E+01     0.00000E+00     4.28672E-01         -7.09623E-01
      -6634     1.34455E+01    -1.14828E+01     0.00000E+00    -2.29314E-01          7.48769E-01
      -6633     1.34414E+01    -1.14811E+01     0.00000E+00     6.59565E-01         -2.59113E-01
      -6632     1.34374E+01    -1.14794E+01     0.00000E+00     7.18993E-01          7.29342E-03
      -6631     1.34333E+01    -1.14776E+01     0.00000E+00    -4.43308E-01         -8.16069E-01
      -6630     1.34293E+01    -1.14759E+01     0.00000E+00     5.88687E-01         -2.60132E-01
      -6629     1.34252E+01    -1.14742E+01     0.00000E+00    -1.81463E-01          5.00915E-01
      -6628     1.34212E+01    -1.14724E+01     0.00000E+00     5.60375E-01         -3.16454E-01
      -6627     1.34171E+01    -1.14707E+01     0.00000E+00     8.29096E-01         -5.05950E-02
      -6626     1.34131E+01    -1.14690E+01     0.00000E+00    -1.45115E-02         -2.73893E-01
      -6625     1.34090E+01    -1.14672E+01     0.00000E+00    -1.01738E+00         -3.64372E-01
      -6624     1.34050E+01    -1.14655E+01     0.00000E+00    -4.56766E-01         -2.67499E-02
      -6623     1.34009E+01    -1.14638E+01     0.00000E+00    -2.71759E-02         -6.04614E-01
      -6622     1.33969E+01    -1.14621E+01     0.00000E+00     2.43870E-01          9.03498E-01
      -6621     1.33929E+01    -1.14603E+01     0.00000E+00     9.16530E-01         -4.53956E-02
      -6620     1.33888E+01    -1.14586E+01     0.00000E+00    -1.12725E-01         -3.57023E-03
      -6619     1.33848E+01    -1.14569E+01     0.00000E+00     2.72725E-01          3.54617E-01
      -6618     1.33807E+01    -1.14551E+01     0.00000E+00    -5.15391E-02         -3.68770E-02
      -6617     1.33767E+01    -1.14534E+01     0.00000E+00     1.68868E-01         -7.62887E-01
      -6616     1.33726E+01    -1.14517E+01     0.00000E+00     5.52801E-01         -7.91039E-01
      -6615     1.33686E+01    -1.14499E+01     0.00000E+00    -4.60523E-01          1.17229E-01
      -6614     1.33645E+01    -1.14482E+01     0.00000E+00    -9.01410E-01          2.28124E-01
      -6613     1.33605E+01    -1.14465E+01     0.00000E+00     1.43189E-01         -8.64235E-02
      -6612     1.33565E+01    -1.14447E+01     0.00000E+00    -2.09630E-01          5.00762E-02
      -6611     1.33524E+01    -1.14430E+01     0.00000E+00     1.80681E-01          2.36450E-01
      -6610     1.33484E+01    -1.14413E+01     0.00000E+00     8.33805E-01         -5.49776E-01
      -6609     1.33443E+01    -1.14396E+01     0.00000E+00     3.78190E-01          3.37085E-01
      -6608     1.33403E+01    -1.14378E+01     0.00000E+00     4.59776E-01         -3.39491E-01
      -6607     1.33363E+01    -1.14361E+01     0.00000E+00     4.40363E-01         -1.72793E-02
      -6606     1.33322E+01    -1.14344E+01     0.00000E+00     1.26259E+00          6.57694E-02
      -6605     1.33282E+01    -1.14326E+01     0.00000E+00    -8.09373E-01         -2.73763E-02
      -6604     1.33242E+01    -1.14309E+01     0.00000E+00    -5.13838E-01         -5.58257E-01
      -6603     1.33201E+01    -1.14292E+01     0.00000E+00     8.96739E-01          8.27928E-01
      -6602     1.33161E+01    -1.14274E+01     0.00000E+00     1.42889E-01          1.83374E-01
      -6601     1.33121E+01    -1.14257E+01     0.00000E+00    -6.02140E-01          2.88021E-01
      -6600     1.33080E+01    -1.14240E+01     0.00000E+00     4.47295E-01         -3.05966E-01
      -6599     1.33040E+01    -1.14222E+01     0.00000E+00     4.07476E-01         -5.58648E-01
      -6598     1.33000E+01    -1.14205E+01     0.00000E+00    -7.15543E-01         -6.35325E-01
      -6597     1.32959E+01    -1.14188E+01     0.00000E+00     2.96372E-01         -1.54102E-01
      -6596     1.32919E+01    -1.14171E+01     0.00000E+00     5.94172E-01          1.22493E-01
      -6595     1.32879E+01    -1.14153E+01     0.00000E+00    -1.01753E+00          1.43386E-01
      -6594     1.32838E+01    -1.14136E+01     0.00000E+00    -2.84828E-01          3.52269E-02
      -6593     1.32798E+01    -1.14119E+01     0.00000E+00    -5.56205E-02         -3.19857E-01
      -6592     1.32758E+01    -1.14101E+01     0.00000E+00     6.51354E-01         -1.98934E-01
      -6591     1.32718E+01    -1.14084E+01     0.00000E+00     1.46098E-01          4.85019E-01
      -6590     1.32677E+01    -1.14067E+01     0.00000E+00    -3.61341E-01          3.04888E-01
      -6589     1.32637E+01    -1.14049E+01     0.00000E+00     6.61767E-01         -4.81923E-01
      -6588     1.32597E+01    -1.14032E+01     0.00000E+00    -2.24212E-01          9.32991E-02
      -6587     1.32557E+01    -1.14015E+01     0.00000E+00    -4.06975E-01          5.89030E-01
      -6586     1.32516E+01    -1.13997E+01     0.00000E+00     2.24279E-02          3.79487E-01
      -6585     1.32476E+01    -1.13980E+01     0.00000E+00    -4.79411E-01          4.80831E-01
      -6584     1.32436E+01    -1.13963E+01     0.00000E+00     3.95455E-01          6.44044E-01
      -6583     1.32396E+01    -1.13945E+01     0.00000E+00     9.09860E-01          2.32096E-02
      -6582     1.32355E+01    -1.13928E+01     0.00000E+00    -1.24563E-01          6.71531E-01
      -6581     1.32315E+01    -1.13911E+01     0.00000E+00     4.31272E-01          3.44043E-01
      -6580     1.32275E+01    -1.13894E+01     0.00000E+00     1.27140E-01          7.23193E-02
      -6579     1.32235E+01    -1.13876E+01     0.00000E+00     2.71548E-01         -5.43045E-01
      -6578     1.32195E+01    -1.13859E+01     0.00000E+00     1.42702E-01          5.67327E-01
      -6577     1.32154E+01    -1.13842E+01     0.00000E+00    -5.41148E-02          2.23077E-01
      -6576     1.32114E+01    -1.13824E+01     0.00000E+00    -5.45111E-01         -2.35358E-02
      -6575     1.32074E+01    -1.13807E+01     0.00000E+00     3.72770E-01          9.66481E-02
      -6574     1.32034E+01    -1.13790E+01     0.00000E+00     3.25239E-02          7.26759E-01
      -6573     1.31994E+01    -1.13772E+01     0.00000E+00    -6.31281E-01          6.75999E-01
      -6572     1.31954E+01    -1.13755E+01     0.00000E+00    -7.69903E-01          5.37208E-01
      -6571     1.31913E+01    -1.13738E+01     0.00000E+00     1.26996E-02          1.74359E-01
      -6570     1.31873E+01    -1.13720E+01     0.00000E+00     7.01836E-01          2.51839E-01
      -6569     1.31833E+01    -1.13703E+01     0.00000E+00    -6.03142E-01          6.37109E-01
      -6568     1.31793E+01    -1.13686E+01     0.00000E+00     2.87331E-01         -5.35046E-02
      -6567     1.31753E+01    -1.13669E+01     0.00000E+00     8.22680E-02         -7.22735E-01
      -6566     1.31713E+01    -1.13651E+01     0.00000E+00    -2.38436E-01         -2.13934E-01
[...]
       7058     1.52191E+01     1.22167E+01     0.00000E+00    -2.20274E-01         -3.78033E-01
       7059     1.52234E+01     1.22185E+01     0.00000E+00     6.91760E-01          7.91712E-01
       7060     1.52277E+01     1.22202E+01     0.00000E+00    -6.31261E-01          7.09473E-01
       7061     1.52320E+01     1.22219E+01     0.00000E+00     1.29246E-01          6.39885E-01
       7062     1.52364E+01     1.22237E+01     0.00000E+00    -3.55236E-03          5.35553E-01
       7063     1.52407E+01     1.22254E+01     0.00000E+00     2.20131E-01          1.77335E-01
       7064     1.52450E+01     1.22271E+01     0.00000E+00     1.23722E-01          6.50061E-01
       7065     1.52493E+01     1.22288E+01     0.00000E+00    -5.85993E-01          2.20092E-01
       7066     1.52536E+01     1.22306E+01     0.00000E+00    -1.76649E-01         -3.00286E-02
       7067     1.52579E+01     1.22323E+01     0.00000E+00    -3.52174E-01         -3.31769E-01
       7068     1.52623E+01     1.22340E+01     0.00000E+00    -6.76214E-03          3.02663E-01
       7069     1.52666E+01     1.22358E+01     0.00000E+00    -6.52254E-02          1.99556E-01
       7070     1.52709E+01     1.22375E+01     0.00000E+00     1.79878E-01          3.78368E-01
       7071     1.52752E+01     1.22392E+01     0.00000E+00    -1.09569E-01          5.49632E-01
       7072     1.52795E+01     1.22410E+01     0.00000E+00     3.06909E-01         -7.25632E-02
       7073     1.52839E+01     1.22427E+01     0.00000E+00     1.83267E-01          1.22103E-01
       7074     1.52882E+01     1.22444E+01     0.00000E+00    -5.90425E-01         -2.41591E-01
       7075     1.52925E+01     1.22462E+01     0.00000E+00     1.30921E-01         -1.61074E-01
       7076     1.52968E+01     1.22479E+01     0.00000E+00    -1.11411E+00         -2.45159E-01
       7077     1.53012E+01     1.22496E+01     0.00000E+00    -5.60449E-01         -5.00708E-01
       7078     1.53055E+01     1.22513E+01     0.00000E+00    -1.09615E-01          5.40333E-02
       7079     1.53098E+01     1.22531E+01     0.00000E+00     4.72999E-02          6.62656E-01
       7080     1.53141E+01     1.22548E+01     0.00000E+00    -4.07021E-02          2.13072E-01
       7081     1.53185E+01     1.22565E+01     0.00000E+00    -2.58744E-01          4.78756E-01
       7082     1.53228E+01     1.22583E+01     0.00000E+00     2.78788E-01          2.47856E-01
       7083     1.53271E+01     1.22600E+01     0.00000E+00    -3.56614E-01          3.58629E-01
       7084     1.53314E+01     1.22617E+01     0.00000E+00    -2.82753E-01         -2.65623E-01
       7085     1.53358E+01     1.22635E+01     0.00000E+00     1.00601E+00          4.09968E-01
       7086     1.53401E+01     1.22652E+01     0.00000E+00     1.89271E-01          1.70142E-01
       7087     1.53444E+01     1.22669E+01     0.00000E+00     4.08563E-01          1.16680E-01
       7088     1.53488E+01     1.22687E+01     0.00000E+00    -3.98021E-01         -1.50848E-01
       7089     1.53531E+01     1.22704E+01     0.00000E+00     2.55978E-01         -4.24600E-01
       7090     1.53574E+01     1.22721E+01     0.00000E+00     1.00209E-01          3.90449E-02
       7091     1.53618E+01     1.22738E+01     0.00000E+00    -4.52583E-01         -1.41078E-01
       7092     1.53661E+01     1.22756E+01     0.00000E+00    -6.86313E-02         -2.31476E-01
       7093     1.53704E+01     1.22773E+01     0.00000E+00    -2.95683E-01         -1.30290E-01
       7094     1.53748E+01     1.22790E+01     0.00000E+00     8.11254E-02          6.22368E-02
       7095     1.53791E+01     1.22808E+01     0.00000E+00     1.37007E-01          1.20232E-02
       7096     1.53834E+01     1.22825E+01     0.00000E+00     7.96180E-01          5.49419E-01
       7097     1.53878E+01     1.22842E+01     0.00000E+00     8.32951E-02          4.25044E-01
       7098     1.53921E+01     1.22860E+01     0.00000E+00     4.63843E-01          2.70923E-01
       7099     1.53964E+01     1.22877E+01     0.00000E+00     2.05464E-02         -2.60504E-01
       7100     1.54008E+01     1.22894E+01     0.00000E+00    -3.76930E-01          4.08381E-01
       7101     1.54051E+01     1.22912E+01     0.00000E+00    -1.75984E-01          3.95975E-02
       7102     1.54095E+01     1.22929E+01     0.00000E+00     2.84093E-01          2.92392E-01
       7103     1.54138E+01     1.22946E+01     0.00000E+00     6.27398E-01          1.58657E-01
       7104     1.54181E+01     1.22964E+01     0.00000E+00    -1.05327E-01          1.99942E-01
       7105     1.54225E+01     1.22981E+01     0.00000E+00     5.62460E-02          2.21255E-01
       7106     1.54268E+01     1.22998E+01     0.00000E+00    -2.00469E-01          2.94951E-01
       7107     1.54312E+01     1.23015E+01     0.00000E+00    -1.47036E-01         -7.85231E-03
       7108     1.54355E+01     1.23033E+01     0.00000E+00     3.30316E-01         -4.74252E-01
       7109     1.54398E+01     1.23050E+01     0.00000E+00    -4.48476E-02          2.80864E-02
       7110     1.54442E+01     1.23067E+01     0.00000E+00    -3.61959E-01         -2.51342E-01
       7111     1.54485E+01     1.23085E+01     0.00000E+00    -4.71420E-01         -7.42221E-05
       7112     1.54529E+01     1.23102E+01     0.00000E+00     2.53983E-01         -5.67737E-01
       7113     1.54572E+01     1.23119E+01     0.00000E+00     1.43267E-01          2.88976E-01
       7114     1.54616E+01     1.23137E+01     0.00000E+00     1.63648E-01          2.94334E-01
       7115     1.54659E+01     1.23154E+01     0.00000E+00    -4.35900E-01         -4.54222E-01
       7116     1.54703E+01     1.23171E+01     0.00000E+00    -6.21506E-01         -3.76453E-02
       7117     1.54746E+01     1.23189E+01     0.00000E+00     5.15996E-01          6.09491E-01
       7118     1.54790E+01     1.23206E+01     0.00000E+00    -4.03941E-01         -6.66320E-01
       7119     1.54833E+01     1.23223E+01     0.00000E+00     9.55577E-03          8.43770E-01
       7120     1.54877E+01     1.23240E+01     0.00000E+00     3.78849E-01          3.21135E-02
       7121     1.54920E+01     1.23258E+01     0.00000E+00    -2.75435E-01          1.23671E-01
       7122     1.54964E+01     1.23275E+01     0.00000E+00     2.60534E-01         -1.43093E-01
       7123     1.55007E+01     1.23292E+01     0.00000E+00    -4.47545E-02          5.25542E-01
       7124     1.55051E+01     1.23310E+01     0.00000E+00    -8.33433E-02         -1.08770E-01
       7125     1.55094E+01     1.23327E+01     0.00000E+00     1.54522E-01         -1.37578E-02
       7126     1.55138E+01     1.23344E+01     0.00000E+00    -3.18208E-01         -2.30222E-02
       7127     1.55181E+01     1.23362E+01     0.00000E+00     6.49355E-01          7.98875E-02
       7128     1.55225E+01     1.23379E+01     0.00000E+00     2.29890E-01         -4.59065E-01
       7129     1.55268E+01     1.23396E+01     0.00000E+00    -6.31300E-01         -4.27628E-01
       7130     1.55312E+01     1.23414E+01     0.00000E+00    -2.09289E-01         -6.76103E-01
       7131     1.55356E+01     1.23431E+01     0.00000E+00    -2.17171E-01         -1.28635E-01
       7132     1.55399E+01     1.23448E+01     0.00000E+00     8.03614E-01          1.78608E-01
       7133     1.55443E+01     1.23465E+01     0.00000E+00     1.08791E-01         -9.30144E-02
       7134     1.55486E+01     1.23483E+01     0.00000E+00    -3.77022E-01         -1.25075E-01
       7135     1.55530E+01     1.23500E+01     0.00000E+00     4.02357E-01         -1.90997E-01
       7136     1.55573E+01     1.23517E+01     0.00000E+00     4.98041E-01          7.02805E-01
       7137     1.55617E+01     1.23535E+01     0.00000E+00    -2.85816E-01          4.12842E-01
       7138     1.55661E+01     1.23552E+01     0.00000E+00    -5.16838E-01          4.66248E-01
       7139     1.55704E+01     1.23569E+01     0.00000E+00     2.48409E-01          1.54806E-01
       7140     1.55748E+01     1.23587E+01     0.00000E+00     3.10420E-01          3.58182E-01
       7141     1.55792E+01     1.23604E+01     0.00000E+00     8.02883E-01          7.75130E-02
       7142     1.55835E+01     1.23621E+01     0.00000E+00     2.70477E-01          7.61939E-01
       7143     1.55879E+01     1.23639E+01     0.00000E+00    -4.91827E-01         -5.05085E-01
       7144     1.55922E+01     1.23656E+01     0.00000E+00    -5.95081E-01          1.42453E-01
       7145     1.55966E+01     1.23673E+01     0.00000E+00     5.01210E-01          7.69004E-01
       7146     1.56010E+01     1.23690E+01     0.00000E+00    -2.40989E-01         -2.86888E-01
       7147     1.56053E+01     1.23708E+01     0.00000E+00     5.74496E-01          4.06660E-01
       7148     1.56097E+01     1.23725E+01     0.00000E+00     5.10516E-02         -3.62662E-01
       7149     1.56141E+01     1.23742E+01     0.00000E+00    -6.34424E-01          4.59755E-01
       7150     1.56185E+01     1.23760E+01     0.00000E+00    -4.70020E-02         -3.95714E-01
       7151     1.56228E+01     1.23777E+01     0.00000E+00    -2.92867E-01          1.04521E-01
       7152     1.56272E+01     1.23794E+01     0.00000E+00    -2.44812E-01         -1.88471E-01
       7153     1.56316E+01     1.23812E+01     0.00000E+00     8.39103E-01         -3.67074E-01
       7154     1.56359E+01     1.23829E+01     0.00000E+00     2.10933E-01          8.25869E-01
       7155     1.56403E+01     1.23846E+01     0.00000E+00     1.36565E-01         -4.85301E-01
       7156     1.56447E+01     1.23864E+01     0.00000E+00     2.99408E-01          2.88550E-01
       7157     1.56490E+01     1.23881E+01     0.00000E+00    -3.86574E-02         -5.51190E-01
       7158     1.56534E+01     1.23898E+01     0.00000E+00     7.00008E-02         -7.03983E-02
       7159     1.56578E+01     1.23916E+01     0.00000E+00    -5.51228E-01         -1.46620E-01
       7160     1.56622E+01     1.23933E+01     0.00000E+00    -3.62208E-01          3.75321E-01
       7161     1.56665E+01     1.23950E+01     0.00000E+00    -4.09705E-01          2.53327E-01
       7162     1.56709E+01     1.23967E+01     0.00000E+00     1.07338E-02          6.63614E-01
       7163     1.56753E+01     1.23985E+01     0.00000E+00     2.99995E-01          3.91005E-01
       7164     1.56797E+01     1.24002E+01     0.00000E+00     9.31545E-02         -5.76137E-01
       7165     1.56841E+01     1.24019E+01     0.00000E+00    -7.63673E-01         -1.59825E-01
       7166     1.56884E+01     1.24037E+01     0.00000E+00     7.21688E-01         -1.13614E+00
       7167     1.56928E+01     1.24054E+01     0.00000E+00     2.19596E-02         -3.11763E-02
       7168     1.56972E+01     1.24071E+01     0.00000E+00    -6.64400E-01         -2.35224E-01
       7169     1.57016E+01     1.24089E+01     0.00000E+00    -6.59178E-01         -8.43757E-02
       7170     1.57059E+01     1.24106E+01     0.00000E+00    -1.19725E-01         -4.91919E-02
       7171     1.57103E+01     1.24123E+01     0.00000E+00    -2.56731E-01         -4.85645E-01
       7172     1.57147E+01     1.24141E+01     0.00000E+00     1.02925E-01         -5.74590E-01
       7173     1.57191E+01     1.24158E+01     0.00000E+00    -7.52497E-01          5.33168E-01
       7174     1.57235E+01     1.24175E+01     0.00000E+00    -2.58717E-01         -6.60363E-03
       7175     1.57279E+01     1.24192E+01     0.00000E+00    -1.09494E-01         -5.36629E-01
       7176     1.57322E+01     1.24210E+01     0.00000E+00     6.38732E-01         -3.61850E-01
       7177     1.57366E+01     1.24227E+01     0.00000E+00     1.68437E-01         -3.53351E-01
       7178     1.57410E+01     1.24244E+01     0.00000E+00     4.06084E-01          7.65918E-01
       7179     1.57454E+01     1.24262E+01     0.00000E+00     7.40890E-01          4.30071E-01
       7180     1.57498E+01     1.24279E+01     0.00000E+00    -3.86736E-01          3.26624E-01
       7181     1.57542E+01     1.24296E+01     0.00000E+00    -1.80571E-01          4.61011E-01
       7182     1.57586E+01     1.24314E+01     0.00000E+00     2.96839E-02          6.36500E-01
       7183     1.57630E+01     1.24331E+01     0.00000E+00    -5.00037E-01          7.08906E-02
       7184     1.57673E+01     1.24348E+01     0.00000E+00     2.13859E-02         -5.15304E-01
       7185     1.57717E+01     1.24366E+01     0.00000E+00     5.50891E-01         -1.07009E-01
       7186     1.57761E+01     1.24383E+01     0.00000E+00     3.02242E-01          8.31528E-01
       7187     1.57805E+01     1.24400E+01     0.00000E+00     3.88989E-01          3.96165E-02
       7188     1.57849E+01     1.24417E+01     0.00000E+00     7.11149E-02          1.89675E-02
       7189     1.57893E+01     1.24435E+01     0.00000E+00    -1.05606E-01          8.50736E-01
       7190     1.57937E+01     1.24452E+01     0.00000E+00    -2.55509E-01         -4.84435E-01
       7191     1.57981E+01     1.24469E+01     0.00000E+00    -2.53457E-01          4.56054E-01
       7192     1.58025E+01     1.24487E+01     0.00000E+00     1.05250E-01          5.56957E-02
       7193     1.58069E+01     1.24504E+01     0.00000E+00    -1.73475E-01         -3.08061E-02
       7194     1.58113E+01     1.24521E+01     0.00000E+00     8.41593E-02          5.35462E-01
       7195     1.58157E+01     1.24539E+01     0.00000E+00     2.67464E-01          5.69287E-01
       7196     1.58201E+01     1.24556E+01     0.00000E+00    -5.20633E-02          7.21163E-01
       7197     1.58245E+01     1.24573E+01     0.00000E+00     9.28752E-01         -4.73506E-02
       7198     1.58289E+01     1.24591E+01     0.00000E+00     3.12570E-01         -5.00442E-01
       7199     1.58333E+01     1.24608E+01     0.00000E+00    -1.73510E-01          4.01215E-01
       7200     1.58377E+01     1.24625E+01     0.00000E+00     2.91571E-01          2.18650E-01
       7201     1.58421E+01     1.24642E+01     0.00000E+00    -3.12716E-01          6.03673E-02
       7202     1.58465E+01     1.24660E+01     0.00000E+00     1.29603E-02          3.24612E-01
       7203     1.58509E+01     1.24677E+01     0.00000E+00    -9.66175E-02          7.05477E-02
       7204     1.58553E+01     1.24694E+01     0.00000E+00     1.10143E-01         -1.78568E-01
       7205     1.58597E+01     1.24712E+01     0.00000E+00     5.55672E-01         -1.33827E-01
       7206     1.58641E+01     1.24729E+01     0.00000E+00    -5.86427E-01          1.76964E-01
       7207     1.58685E+01     1.24746E+01     0.00000E+00     8.80236E-01         -1.61596E-01
       7208     1.58729E+01     1.24764E+01     0.00000E+00    -8.88687E-03         -2.18844E-01
       7209     1.58773E+01     1.24781E+01     0.00000E+00    -2.15138E-01         -4.85161E-01
       7210     1.58817E+01     1.24798E+01     0.00000E+00    -5.51113E-01         -1.01148E+00
       7211     1.58861E+01     1.24816E+01     0.00000E+00     3.42218E-01          1.60547E-01
       7212     1.58905E+01     1.24833E+01     0.00000E+00    -1.91315E-01         -3.88297E-01
       7213     1.58949E+01     1.24850E+01     0.00000E+00     4.68440E-01          7.80383E-02
       7214     1.58993E+01     1.24867E+01     0.00000E+00     6.79357E-02          5.00903E-01
       7215     1.59037E+01     1.24885E+01     0.00000E+00     4.19285E-01          8.56163E-03
       7216     1.59081E+01     1.24902E+01     0.00000E+00     4.63495E-02         -7.19171E-02
       7217     1.59125E+01     1.24919E+01     0.00000E+00    -6.05597E-01          3.60337E-01
       7218     1.59169E+01     1.24937E+01     0.00000E+00    -1.02487E+00          2.53813E-01
       7219     1.59214E+01     1.24954E+01     0.00000E+00    -5.97183E-01         -1.36395E-01
       7220     1.59258E+01     1.24971E+01     0.00000E+00     3.20904E-02          6.48348E-02
       7221     1.59302E+01     1.24989E+01     0.00000E+00    -5.56248E-01         -1.89398E-01
       7222     1.59346E+01     1.25006E+01     0.00000E+00     3.92722E-01         -7.27379E-01
       7223     1.59390E+01     1.25023E+01     0.00000E+00    -2.90670E-01         -3.57116E-03
       7224     1.59434E+01     1.25041E+01     0.00000E+00    -2.95703E-01         -4.65261E-02
       7225     1.59478E+01     1.25058E+01     0.00000E+00    -2.26474E-01          6.36578E-01
       7226     1.59522E+01     1.25075E+01     0.00000E+00    -1.81796E-01         -2.37911E-01
       7227     1.59567E+01     1.25093E+01     0.00000E+00    -1.29622E-01         -4.15064E-01
       7228     1.59611E+01     1.25110E+01     0.00000E+00     4.49834E-01         -4.82292E-01
       7229     1.59655E+01     1.25127E+01     0.00000E+00     4.17614E-01          7.39050E-02
       7230     1.59699E+01     1.25144E+01     0.00000E+00     1.04612E-01         -1.00311E-01
       7231     1.59743E+01     1.25162E+01     0.00000E+00     1.01977E+00          1.64008E-01
       7232     1.59787E+01     1.25179E+01     0.00000E+00    -6.91430E-02          1.87091E-02
       7233     1.59832E+01     1.25196E+01     0.00000E+00     4.36629E-01          2.32049E-01
       7234     1.59876E+01     1.25214E+01     0.00000E+00     5.31291E-01         -6.46862E-02
       7235     1.59920E+01     1.25231E+01     0.00000E+00    -1.12513E-01          3.17909E-02
       7236     1.59964E+01     1.25248E+01     0.00000E+00     3.45021E-01         -6.52521E-03
       7237     1.60008E+01     1.25266E+01     0.00000E+00     7.15885E-02         -3.25038E-01
       7238     1.60053E+01     1.25283E+01     0.00000E+00     9.54909E-01         -4.99856E-01
       7239     1.60097E+01     1.25300E+01     0.00000E+00    -4.03950E-01         -5.61275E-02
       7240     1.60141E+01     1.25318E+01     0.00000E+00    -8.69658E-01          7.72627E-01
       7241     1.60185E+01     1.25335E+01     0.00000E+00     5.59101E-01          2.44376E-01
       7242     1.60230E+01     1.25352E+01     0.00000E+00     1.61464E-01         -2.12163E-01
       7243     1.60274E+01     1.25369E+01     0.00000E+00     1.67915E-01         -2.43000E-01
       7244     1.60318E+01     1.25387E+01     0.00000E+00     4.67461E-01         -8.41943E-02
       7245     1.60362E+01     1.25404E+01     0.00000E+00    -4.21986E-01          1.98719E-01
       7246     1.60407E+01     1.25421E+01     0.00000E+00     7.12053E-01          5.13416E-01
       7247     1.60451E+01     1.25439E+01     0.00000E+00     4.52110E-02         -5.59854E-01
       7248     1.60495E+01     1.25456E+01     0.00000E+00    -6.21909E-01          1.39208E-01
       7249     1.60540E+01     1.25473E+01     0.00000E+00     4.57458E-02         -2.38517E-01
       7250     1.60584E+01     1.25491E+01     0.00000E+00    -6.36414E-02          4.89529E-01
       7251     1.60628E+01     1.25508E+01     0.00000E+00     4.09480E-01          4.67247E-01
       7252     1.60672E+01     1.25525E+01     0.00000E+00    -8.21303E-02          2.00838E-01
       7253     1.60717E+01     1.25543E+01     0.00000E+00    -4.09245E-01         -4.53587E-01
       7254     1.60761E+01     1.25560E+01     0.00000E+00     6.93027E-01         -1.67246E-01
       7255     1.60805E+01     1.25577E+01     0.00000E+00     3.43692E-01          8.22679E-02
       7256     1.60850E+01     1.25594E+01     0.00000E+00     2.73472E-01          9.30663E-02
       7257     1.60894E+01     1.25612E+01     0.00000E+00     2.64872E-01         -3.27411E-01
       7258     1.60938E+01     1.25629E+01     0.00000E+00    -2.31428E-01          6.45541E-01
       7259     1.60983E+01     1.25646E+01     0.00000E+00    -1.54926E-01          2.43261E-01
       7260     1.61027E+01     1.25664E+01     0.00000E+00     0.00000E+00          0.00000E+00

This summary file was closed on 03-Nov-2016 at 13:54:57.

