
This summary information was generated by ElastoDyn (v1.04.00a-bjj, 26-Jul-2016) on 03-Nov-2016 at 13:35:54.


Turbine features:

            Downwind, three-bladed rotor with rigid hub.
            The model has 13 of 24 DOFs active (enabled) at start-up.
 Disabled   Platform horizontal surge translation DOF 
 Disabled   Platform horizontal sway translation DOF 
 Disabled   Platform vertical heave translation DOF 
 Disabled   Platform roll tilt rotation DOF 
 Disabled   Platform pitch tilt rotation DOF 
 Disabled   Platform yaw rotation DOF 
 Enabled    1st tower fore-aft bending mode DOF 
 Enabled    1st tower side-to-side bending mode DOF 
 Enabled    2nd tower fore-aft bending mode DOF 
 Enabled    2nd tower side-to-side bending mode DOF 
 Disabled   Nacelle yaw DOF 
 Disabled   Rotor-furl DOF 
 Disabled   Variable speed generator DOF 
 Disabled   Drivetrain rotational-flexibility DOF 
 Disabled   Tail-furl DOF 
 Enabled    1st flapwise bending-mode DOF of blade 1 
 Enabled    1st edgewise bending-mode DOF of blade 1 
 Enabled    2nd flapwise bending-mode DOF of blade 1 
 Enabled    1st flapwise bending-mode DOF of blade 2 
 Enabled    1st edgewise bending-mode DOF of blade 2 
 Enabled    2nd flapwise bending-mode DOF of blade 2 
 Enabled    1st flapwise bending-mode DOF of blade 3 
 Enabled    1st edgewise bending-mode DOF of blade 3 
 Enabled    2nd flapwise bending-mode DOF of blade 3 


Time steps:

    Structural            (s)        0.00500000


Some calculated parameters:

    Hub-Height            (m)            25.000
    Flexible Tower Length (m)            24.400
    Flexible Blade Length (m)             7.210


Rotor mass properties:

    Rotor Mass            (kg)          681.605
    Rotor Inertia         (kg-m^2)     6326.697
                                        Blade 1      Blade 2      Blade 3
                                        -------      -------      -------
    Mass                  (kg)          144.768      144.768      144.768
    Second Mass Moment    (kg-m^2)     1883.899     1883.899     1883.899
    First Mass Moment     (kg-m)        417.704      417.704      417.704
    Center of Mass        (m)             2.885        2.885        2.885


Additional mass properties:

    Tower-top Mass        (kg)         2428.604
    Tower Mass            (kg)         3215.980
    Platform Mass         (kg)            0.000
    Mass Incl. Platform   (kg)         5644.585


Interpolated tower properties:

Node  TwFract   HNodes  DHNodes  TMassDen    FAStiff    SSStiff
 (-)      (-)      (m)      (m)    (kg/m)     (Nm^2)     (Nm^2)
   1    0.045    1.109    2.218   146.827  2.245E+09  2.245E+09
   2    0.136    3.327    2.218   139.482  2.033E+09  2.033E+09
   3    0.227    5.545    2.218   134.673  1.817E+09  1.817E+09
   4    0.318    7.764    2.218   131.927  1.608E+09  1.608E+09
   5    0.409    9.982    2.218   130.664  1.399E+09  1.399E+09
   6    0.500   12.200    2.218   130.300  1.190E+09  1.190E+09
   7    0.591   14.418    2.218   130.300  9.782E+08  9.782E+08
   8    0.682   16.636    2.218   129.891  7.680E+08  7.680E+08
   9    0.773   18.855    2.218   128.636  5.573E+08  5.573E+08
  10    0.864   21.073    2.218   125.909  3.464E+08  3.464E+08
  11    0.955   23.291    2.218   121.218  1.355E+08  1.355E+08


Interpolated blade 1 properties:

Node  BlFract   RNodes  DRNodes PitchAxis  StrcTwst  BMassDen    FlpStff    EdgStff
 (-)      (-)      (m)      (m)       (-)     (deg)    (kg/m)     (Nm^2)     (Nm^2)
   1    0.050    0.640    0.721     0.250     6.520    41.660  6.987E+06  9.004E+06
   2    0.150    1.361    0.721     0.250     5.005    27.625  4.210E+06  1.068E+07
   3    0.250    2.082    0.721     0.250     4.485    22.285  2.307E+06  1.182E+07
   4    0.350    2.803    0.721     0.250     4.110    20.940  1.661E+06  1.190E+07
   5    0.450    3.524    0.721     0.250     3.580    17.895  1.143E+06  8.528E+06
   6    0.550    4.246    0.721     0.250     2.905    16.195  6.933E+05  4.865E+06
   7    0.650    4.966    0.721     0.250     2.210    13.980  3.746E+05  3.084E+06
   8    0.750    5.687    0.721     0.250     1.510    11.805  1.662E+05  1.755E+06
   9    0.850    6.408    0.721     0.250     0.945    10.675  6.907E+04  1.041E+06
  10    0.950    7.129    0.721     0.250     0.540     9.545  4.264E+04  7.745E+05


Interpolated blade 2 properties:

Node  BlFract   RNodes  DRNodes PitchAxis  StrcTwst  BMassDen    FlpStff    EdgStff
 (-)      (-)      (m)      (m)       (-)     (deg)    (kg/m)     (Nm^2)     (Nm^2)
   1    0.050    0.640    0.721     0.250     6.520    41.660  6.987E+06  9.004E+06
   2    0.150    1.361    0.721     0.250     5.005    27.625  4.210E+06  1.068E+07
   3    0.250    2.082    0.721     0.250     4.485    22.285  2.307E+06  1.182E+07
   4    0.350    2.803    0.721     0.250     4.110    20.940  1.661E+06  1.190E+07
   5    0.450    3.524    0.721     0.250     3.580    17.895  1.143E+06  8.528E+06
   6    0.550    4.246    0.721     0.250     2.905    16.195  6.933E+05  4.865E+06
   7    0.650    4.966    0.721     0.250     2.210    13.980  3.746E+05  3.084E+06
   8    0.750    5.687    0.721     0.250     1.510    11.805  1.662E+05  1.755E+06
   9    0.850    6.408    0.721     0.250     0.945    10.675  6.907E+04  1.041E+06
  10    0.950    7.129    0.721     0.250     0.540     9.545  4.264E+04  7.745E+05


Interpolated blade 3 properties:

Node  BlFract   RNodes  DRNodes PitchAxis  StrcTwst  BMassDen    FlpStff    EdgStff
 (-)      (-)      (m)      (m)       (-)     (deg)    (kg/m)     (Nm^2)     (Nm^2)
   1    0.050    0.640    0.721     0.250     6.520    41.660  6.987E+06  9.004E+06
   2    0.150    1.361    0.721     0.250     5.005    27.625  4.210E+06  1.068E+07
   3    0.250    2.082    0.721     0.250     4.485    22.285  2.307E+06  1.182E+07
   4    0.350    2.803    0.721     0.250     4.110    20.940  1.661E+06  1.190E+07
   5    0.450    3.524    0.721     0.250     3.580    17.895  1.143E+06  8.528E+06
   6    0.550    4.246    0.721     0.250     2.905    16.195  6.933E+05  4.865E+06
   7    0.650    4.966    0.721     0.250     2.210    13.980  3.746E+05  3.084E+06
   8    0.750    5.687    0.721     0.250     1.510    11.805  1.662E+05  1.755E+06
   9    0.850    6.408    0.721     0.250     0.945    10.675  6.907E+04  1.041E+06
  10    0.950    7.129    0.721     0.250     0.540     9.545  4.264E+04  7.745E+05


Requested Outputs:


  Col  Parameter  Units
  ---  ---------  -----
   0   Time       (s)       
   1   LSSGagPxa  (deg)     
   2   TipDxb1    (m)       
   3   TipDxb2    (m)       
   4   TipDyb1    (m)       
   5   TipDyb2    (m)       
   6   RollDefl1  (deg)     
   7   RollDefl2  (deg)     
   8   PtchDefl1  (deg)     
   9   PtchDefl2  (deg)     
  10   Spn1ALxb1  (m/s^2)   
  11   Spn1ALyb1  (m/s^2)   
  12   HSShftV    (rpm)     
  13   TTDspRoll  (deg)     
  14   TTDspPtch  (deg)     
  15   YawBrRVxp  (deg/s)   
  16   YawBrRVyp  (deg/s)   
  17   YawBrRAxp  (deg/s^2) 
  18   YawBrRAyp  (deg/s^2) 
  19   RootFxb1   (kN)      
  20   RootFyb1   (kN)      
  21   Spn2MLxb1  (kN·m)    
  22   Spn2MLyb1  (kN·m)    
  23   LSShftFya  (kN)      
  24   LSShftFza  (kN)      
  25   YawBrFxn   (kN)      
  26   YawBrFyn   (kN)      
