
This summary information was generated by AeroDyn (v15.04.00, 29-Oct-2016) on 03-Nov-2016 at 13:35:54.

======  General Options  ============================================================================
            1  WakeMod        - Type of wake/induction model: Blade-Element/Momentum Theory
            2  AFAeroMod      - Type of blade airfoil aerodynamics model: Beddoes-Leishman unsteady model
            0  TwrPotent      - Type tower influence on wind based on potential flow around the tower: none
            T  TwrShadow      - Calculate tower influence on wind based on downstream tower shadow? Yes
            F  TwrAero        - Calculate tower aerodynamic loads? No
======  Blade-Element/Momentum Theory Options  ======================================================
            2  SkewMod        - Type of skewed-wake correction model: Pitt/Peters
            T  TipLoss        - Use the Prandtl tip-loss model? Yes
            F  HubLoss        - Use the Prandtl hub-loss model? No
            T  TanInd         - Include tangential induction in BEMT calculations? Yes
            F  AIDrag         - Include the drag term in the axial-induction calculation? No
            F  AIDrag         - Include the drag term in the tangential-induction calculation? No
   5.0000E-05  IndToler       - Convergence tolerance for BEM induction factors (radians)
======  Beddoes-Leishman Unsteady Airfoil Aerodynamics Options  =====================================
            3  UAMod          - Unsteady Aero Model: Minemma/Pierce variant (changes in Cc and Cm)
            T  FLookup        - Use a lookup for f'? Yes
======  Outputs  ====================================================================================
            4  NBlOuts        - Number of blade nodes selected for output
           12  NumBlNds       - Number of blade nodes in the analysis
               Blade nodes selected for output:  Output node  Analysis node
                                                 -----------  -------------
                                                           1              4
                                                           2              6
                                                           3              8
                                                           4             10
            0  NTwOuts        - Number of tower nodes selected for output
               Requested Output Channels:
               Col   Parameter  Units
               ----  ---------  -----
                  0  Time       (s)       
                  1  RtSpeed    (rpm)     
                  2  RtSkew     (deg)     
                  3  B1N1Theta  (deg)     
                  4  B1N2Theta  (deg)     
                  5  B1N3Theta  (deg)     
                  6  B1N4Theta  (deg)     
                  7  B1N1AxInd  (-)       
                  8  B1N2AxInd  (-)       
                  9  B1N3AxInd  (-)       
                 10  B1N4AxInd  (-)       
                 11  B1N1Alpha  (deg)     
                 12  B1N2Alpha  (deg)     
                 13  B1N3Alpha  (deg)     
                 14  B1N4Alpha  (deg)     
                 15  B1N1Vrel   (m/s)     
                 16  B1N2Vrel   (m/s)     
                 17  B1N3Vrel   (m/s)     
                 18  B1N4Vrel   (m/s)     
                 19  B1N1Cl     (-)       
                 20  B1N2Cl     (-)       
                 21  B1N3Cl     (-)       
                 22  B1N4Cl     (-)       
                 23  B1N1Cd     (-)       
                 24  B1N2Cd     (-)       
                 25  B1N3Cd     (-)       
                 26  B1N4Cd     (-)       
                 27  B1N1Cm     (-)       
                 28  B1N2Cm     (-)       
                 29  B1N3Cm     (-)       
                 30  B1N4Cm     (-)       
