
This file was generated by AeroDyn14 (v14.05.01a-bjj, 25-Jul-2016) on 03-Nov-2016 at 13:36:19.

Inputs read in from the AeroDyn input file:
1.5 MW baseline aerodynamic parameters for FAST certification tests #11-#13.

           SI  SysUnits       - Units for input and output         
      BEDDOES  StallMod       - Dynamic stall model                 [Beddoes]
        NO_CM  UseCm          - Aerodynamic pitching moment model   [NO Pitching Moments calculated]
        DYNIN  InfModel       - Inflow model                        [Dynamic Inflow]
        SWIRL  IndModel       - Induction factor model              [Normal and Radial flow induction factors calculated]
   5.0000E-03  AToler         - Convergence tolerance for induction factor
   [Not Used]  TLModel        - Tip-loss model                     
   [Not Used]  HLModel        - Hub-loss model                     
   8.4288E+01  HH             - Wind reference (hub) height, m
   0.0000E+00  TwrShad        - Tower shadow centerline velocity deficit
   9.9999E+03  ShadHWid       - Tower shadow half width, m
   9.9999E+03  T_Shad_Refpt   - Tower shadow reference point, m
   1.2250E+00  AirDens        - Air density, kg/m^3
   1.4639E-05  KinVisc        - Kinematic air viscosity, m^2/sec
   5.0000E-03  DTAERO         - Time interval for aerodynamic calculations, sec
            4  NumFoil        - Number of airfoil files used. Files listed below:
".\WP_Baseline/AeroData/cylinder.dat"
".\WP_Baseline/AeroData/s818_2703.dat"
".\WP_Baseline/AeroData/s825_2103.dat"
".\WP_Baseline/AeroData/s826_1603.dat"
           15  BldNodes       - Number of blade elements per blade

     Element     RELM       Twist       DR        Chord      NFoil     Print?    Tip-loss   Hub-loss 
       (-)        (m)       (deg)       (m)        (m)        (-)     (Yes/No)   constant   constant 
   ---------- ---------- ---------- ---------- ---------- ---------- ---------- ---------- ----------
            1    2.85833   11.10000    2.21667    1.94900          1         No   16.86737    0.95000
            2    5.07500   11.10000    2.21667    2.26900          2         No    8.84483    2.85000
            3    7.29167   11.10000    2.21667    2.58900          2         No    5.70000    4.75000
            4    9.50833   10.41000    2.21667    2.74300          2         No    4.02147    6.65000
            5   11.72500    8.38000    2.21667    2.57800          2         No    2.97761    8.55000
            6   13.94167    6.35000    2.21667    2.41200          2         No    2.26569   10.45000
            7   16.15833    4.33000    2.21667    2.24700          2         No    1.74910   12.35000
            8   18.37500    2.85000    2.21667    2.08200          3         No    1.35714   14.25000
            9   20.59167    2.22000    2.21667    1.91600          3         No    1.04957   16.15000
           10   22.80833    1.58000    2.21667    1.75100          3         No    0.80179   18.05000
           11   25.02500    0.95000    2.21667    1.58500          3         No    0.59790   19.95000
           12   27.24167    0.53000    2.21667    1.42700          3         No    0.42719   21.85000
           13   29.45833    0.38000    2.21667    1.27800          3         No    0.28218   23.75000
           14   31.67500    0.23000    2.21667    1.12900          4         No    0.15746   25.65000
           15   33.89167    0.08000    2.21667    0.98000          4         No    0.04905   27.55000


 Rotor radius     =  35.000 m
 Hub radius       =   1.750 m
 Number of blades =   3

  BEDDOES DYNAMIC STALL PARAMETERS:

   CN SLOPE           0.0000     6.1084     6.1883     6.1657
   STALL CN (UPPER)   0.0000     1.9560     2.0641     2.0013
   STALL CN (LOWER)   0.0000    -0.8000    -0.8000    -0.8000
   ZERO LIFT AOA      0.0000    -5.3100    -6.1000    -6.6100
   MIN DRAG AOA       0.0000    -4.5000    -6.0000    -4.0000
   MIN DRAG COEFF     1.0000     0.0082     0.0074     0.0067


     VORTEX TRANSIT TIME FROM LE TO TE    11.00000    
     PRESSURE TIME CONSTANT               1.700000    
     VORTEX TIME CONSTANT                 6.000000    
     F-PARAMETER TIME CONSTANT            3.000000    
