
This summary file was generated by TurbSim (v1.50, 25-Sep-2009) on 11-Mar-2010 at 14:25:33.


Runtime Options:

       335  Random seed #1
   9295922  Random seed #2
         F  Output binary HH turbulence parameters?
         F  Output formatted turbulence parameters?
         F  Output AeroDyn HH files?
         F  Output AeroDyn FF files?
         T  Output BLADED FF files?
         F  Output tower data?
         F  Output formatted FF files?
         F  Output coherent turbulence time step file?
         T  Clockwise rotation when looking downwind?
 0 -  NONE  IEC turbulence models scaled to exact specified standard deviation


Turbine/Model Specifications:

         6  Vertical grid-point matrix dimension
         6  Horizontal grid-point matrix dimension
     0.050  Time step [seconds]
   600.000  Analysis time [seconds]
    70.000  Usable output time [seconds]
    42.672  Hub height [m]
    33.000  Grid height [m]
    33.000  Grid width [m]
     0.000  Vertical flow angle [degrees]
     0.000  Horizontal flow angle [degrees]


Meteorological Boundary Conditions:

    IECVKM  IEC von Karman spectral model
         1  IEC standard: IEC 61400-1 Ed. 2: 1999
         A  IEC turbulence characteristic
       NTM  IEC Normal Turbulence Model
       N/A  IEC Extreme Turbulence Model (ETM) "c" parameter [m/s]
       IEC  Wind profile type
    42.672  Reference height [m]
    12.000  Reference wind speed [m/s]
       N/A  Jet height [m]
     0.200  Power law exponent
     0.030  Surface roughness length [m]


You have requested that the following file(s) be generated:

   42m_12mps.wnd (AeroDyn/BLADED full-field wnd file)


Turbulence Simulation Scaling Parameter Summary:

   Turbulence model used                            =  IEC von Karman
   Turbulence characteristic                        =  A
   IEC turbulence type                              =  Normal Turbulence Model
   IEC standard                                     =  IEC 61400-1 Ed. 2: 1999
   Mean wind speed at hub height                    =   12.000 m/s
   Char value of turbulence intensity at 15 m/s     =   18.000%
   Standard deviation slope                         =    2.000
   Characteristic value of standard deviation       =    2.340 m/s
   Turbulence scale                                 =   21.000 m
   Isotropic integral scale                         =   73.500 m
   Characteristic value of hub turbulence intensity =   19.500%
   Gradient Richardson number                       =    0.000

   Wind profile type                                =  Power law on rotor disk, logarithmic elsewhere
   Power law exponent                               =    0.200
   Mean shear across rotor disk                     =    0.058 (m/s)/m
   Assumed rotor diameter                           =   33.000 m
   Surface roughness length                         =    0.030 m

   Number of time steps in the FFT                  =    12000
   Number of time steps output                      =     1455


Mean Flow Angles:

   Vertical   =   0.0 degrees
   Horizontal =   0.0 degrees

Mean Wind Speed Profile:

   Height    Wind Speed   Horizontal Angle  U-comp (X)   V-comp (Y)   W-comp (Z)
     (m)        (m/s)         (degrees)       (m/s)        (m/s)        (m/s)   
   ------    ----------   ----------------  ----------   ----------   ----------
     59.2       12.81            0.00         12.81         0.00         0.00
     52.6       12.51            0.00         12.51         0.00         0.00
     46.0       12.18            0.00         12.18         0.00         0.00
     42.7       12.00            0.00         12.00         0.00         0.00
     39.4       11.81            0.00         11.81         0.00         0.00
     32.8       11.38            0.00         11.38         0.00         0.00
     26.2       10.88            0.00         10.88         0.00         0.00


Harvested Random Seeds after Generation of the Random Numbers:

    115327000 Harvested seed #1
   1235090240 Harvested seed #2


Hub-Height Simulated Turbulence Statistical Summary:

   Type of Wind        Min (m/s)   Mean (m/s)    Max (m/s)  Sigma (m/s)       TI (%)
   ----------------    ---------   ----------    ---------  -----------       ------
   Longitudinal (u)         5.21        12.00        21.58        2.094       17.451
   Lateral (v)             -8.44         0.00         7.86        2.307       19.226
   Vertical (w)            -7.89         0.00         7.19        2.307       19.226
   U component              5.21        12.00        21.58        2.094       17.451
   V component             -8.44         0.00         7.86        2.307       19.226
   W component             -7.89         0.00         7.19        2.307       19.226
   Horizontal (U&V)         5.33        12.22        21.63        2.093       17.130
   Total                    5.49        12.44        21.65        2.054       16.509

                       Min Reynolds     Mean Reynolds    Max Reynolds    Correlation
   Product             Stress (m/s)^2   Stress (m/s)^2   Stress (m/s)^2  Coefficient
   ----------------    --------------   --------------   --------------  -----------
   u'w'                    -22.180             0.842            29.752         0.174
   u'v'                    -28.627             0.466            29.867         0.097
   v'w'                    -32.830            -0.040            25.687        -0.008


   Friction Velocity (Ustar)  =      0.918 m/s
   Maximum Instantaneous TKE  =     47.400 (m/s)^2
   Maximum Instantaneous CTKE =     21.169 (m/s)^2


Grid Point Variance Summary:

   Y-coord  -16.50   -9.90   -3.30    3.30    9.90   16.50

   Height   Standard deviation at grid points for the u component:
    59.17    2.170   2.089   1.985   2.012   1.954   1.896
    52.57    2.214   2.258   2.161   2.167   2.099   1.918
    45.97    2.472   2.299   2.207   2.036   2.170   2.141
    39.37    2.357   2.321   2.173   1.995   2.104   2.100
    32.77    2.404   2.280   2.212   2.250   2.223   2.254
    26.17    2.301   2.255   2.163   2.189   2.257   2.247

   Height   Standard deviation at grid points for the v component:
    59.17    2.307   2.307   2.307   2.307   2.307   2.307
    52.57    2.307   2.307   2.307   2.307   2.307   2.307
    45.97    2.307   2.307   2.307   2.307   2.307   2.307
    39.37    2.307   2.307   2.307   2.307   2.307   2.307
    32.77    2.307   2.307   2.307   2.307   2.307   2.307
    26.17    2.307   2.307   2.307   2.307   2.307   2.307

   Height   Standard deviation at grid points for the w component:
    59.17    2.307   2.307   2.307   2.307   2.307   2.307
    52.57    2.307   2.307   2.307   2.307   2.307   2.307
    45.97    2.307   2.307   2.307   2.307   2.307   2.307
    39.37    2.307   2.307   2.307   2.307   2.307   2.307
    32.77    2.307   2.307   2.307   2.307   2.307   2.307
    26.17    2.307   2.307   2.307   2.307   2.307   2.307

   Mean standard deviation across all grid points:
      u component:    2.176 m/s
      v component:    2.307 m/s
      w component:    2.307 m/s


U-component (X) statistics from the interpolated hub point:

   Mean =  11.9942 m/s
   TI   =  15.0040 %


Normalizing Parameters for Binary Data (approximate statistics):

   UBar  =  12.0000 m/s
   TI(u) =  17.4514 %
   TI(v) =  19.2261 %
   TI(w) =  19.2261 %

   Height Offset =   0.0000 m
   Grid Base     =  26.1720 m

Nyquist frequency of turbulent wind field =        10.000 Hz


Processing complete.  0.65625 CPU seconds used.
